          4
Energy: -0.023105334240618614 Kcal/mole
 Kr    -5.3935313218     4.8934722842    -5.6818229531
 Kr     0.6914137207     5.3202501200     5.0927779022
 Kr    -5.6412923115    -0.0369593638     2.9696641916
 Kr    -0.1455755609    -5.8648681134     2.3591979853
          4
Energy: -0.30215370361500443 Kcal/mole
 Kr     8.0578335455     7.9112609131    -1.7473118578
 Kr    -6.4530305776    -0.9377204213    -2.0426455542
 Kr    -8.0470983998     0.3691771559     1.7710052086
 Kr     3.7833968785     4.6570322023    -6.9766459471
          4
Energy: -0.23432074431571667 Kcal/mole
 Kr     5.1769373715     0.8000505715     3.6442718342
 Kr     2.3254599882     2.4147603258    -2.9587806290
 Kr    -4.1865371387    -1.9238289902     2.8603720587
 Kr     7.2966907056     1.6569687109    -1.4637410286
          4
Energy: -0.37975414574724775 Kcal/mole
 Kr    -0.0432095651     5.3182485749     1.3525008839
 Kr     2.8729780629    -2.0145252955     4.2654714700
 Kr    -6.7278807477     2.5763684113     2.8155222928
 Kr    -3.8218605683     4.7941469619     5.3860811438
          4
Energy: -1.1435805455561303 Kcal/mole
 Kr     2.0836849972    -3.4828371960     7.7166547092
 Kr     3.5750819099     0.3687594115     7.2943866860
 Kr    -0.3266886099     0.6265433705     5.9586765430
 Kr     0.3430777276     3.6142093388     3.4834387934
          4
Energy: -0.19763878788998906 Kcal/mole
 Kr    -8.1265986466     5.4893198619    -3.4962757940
 Kr    -5.9002073812     1.3019977726    -2.9608176252
 Kr     5.0137282593     3.9132848184     8.2384142109
 Kr     6.5482091480     4.5879967681    -7.3226461935
          4
Energy: -1.4962708373171432 Kcal/mole
 Kr    -4.7401912276     0.8198186882     2.0384797241
 Kr    -2.2336508336     1.6256269265     6.5620865454
 Kr    -5.7164675716    -0.4699670566     5.5029417495
 Kr    -5.5992055902     3.9405572883     5.0905684393
          4
Energy: -1.7583684661786292 Kcal/mole
 Kr    -2.3880494409     4.9083941367    -2.2417404020
 Kr    -6.3199681630     4.9207892141    -0.4230013423
 Kr    -5.4096652650     2.7164616969    -3.8942508595
 Kr    -4.4389415307     1.2498368233    -0.3666384227
          4
Energy: -1.874791430136885 Kcal/mole
 Kr    -2.7861654302     3.2959580796    -6.2689460174
 Kr    -1.3127040233     1.9504146257    -2.6723789484
 Kr    -4.1732364339     4.9308999530    -2.8857876499
 Kr    -5.0985155373     1.0796989343    -3.9980371244
          4
Energy: -1.9017591462618788 Kcal/mole
 Kr    -2.6296584768     3.3521372477    -6.2709919537
 Kr    -1.3973191800     1.9858922624    -2.6473693949
 Kr    -4.1620301212     4.9471067522    -2.8618198612
 Kr    -5.1539965852     1.1492021430    -3.9749061075
