          4
Energy: -0.2684859475376822 Kcal/mole
 Kr    -3.6132945567    -3.8220909807     6.4084991887
 Kr    -4.8325142745    -1.8277969212    -4.9970841503
 Kr    -8.1839144339     0.5269360949    -3.1484541763
 Kr    -3.3692336133     4.0352720332     7.1531496307
          4
Energy: -0.5974378144157736 Kcal/mole
 Kr     3.8522510156    -0.9033449665    -2.9061157157
 Kr    -5.4691148744    -6.7788774107    -0.0491337332
 Kr     6.1712413756     1.7443351230    -0.5322612180
 Kr     1.5417381034    -4.5486703162    -3.6207699994
          4
Energy: -0.5687184315481194 Kcal/mole
 Kr     6.3247175340    -6.4469263259     4.6791288283
 Kr     1.1276653105    -4.0502188946     1.6598819669
 Kr     4.9638814706    -5.6703203638     0.4247605835
 Kr     3.3869755248     6.6142532680     2.5327595710
          4
Energy: -0.2603992307963274 Kcal/mole
 Kr     4.0920236933     6.4137391548    -0.3516791768
 Kr     6.1258289235     2.1680961461    -2.2398913367
 Kr    -5.2637357081    -2.9090878117    -7.4352384187
 Kr    -5.0724506897     2.1435071862    -5.6971872002
          4
Energy: -0.20451841114856867 Kcal/mole
 Kr     6.3309097351    -2.4058994085    -6.3390813269
 Kr     5.7310024199     2.7223227107    -6.8295072743
 Kr     0.7847341862     0.0499027650    -3.6856008611
 Kr    -3.5889945199     7.9108022413     2.8089871965
          4
Energy: -1.2668214182210866 Kcal/mole
 Kr    -0.2257824112     0.3387760182     5.3746907094
 Kr    -2.1862574705    -3.0894302554    -0.7390099955
 Kr    -0.0204633794    -2.9886646464     2.7678954406
 Kr    -2.8490803166    -2.5867530268     5.3840957972
          4
Energy: -1.6356460360050327 Kcal/mole
 Kr    -4.0949127372     3.7715061276     1.9819847128
 Kr    -0.2246081741     3.9139385167     0.8806652796
 Kr    -2.9628027032     6.9252552942    -0.5777487493
 Kr    -2.7577448011     1.4381446096    -1.0902178555
          4
Energy: -1.7690715920198217 Kcal/mole
 Kr    -5.4241699835     3.0464452160    -1.1154446206
 Kr    -6.7472424370    -0.0712992205     0.9544321772
 Kr    -2.8294611780     0.0866374746     0.3649927090
 Kr    -4.2998197110     2.4104842022     2.9912446905
          4
Energy: -1.8486670865279946 Kcal/mole
 Kr    -0.6167048958    -0.3789656189     5.4575356644
 Kr    -3.3966946828     1.2010514794     2.9765406689
 Kr    -0.7155224791    -1.2298944735     1.5060855998
 Kr    -3.5017717076    -2.6659683486     4.1760520499
          4
Energy: -1.9019528588542962 Kcal/mole
 Kr    -0.4591474711    -0.3035302342     5.4236005492
 Kr    -3.3223928363     1.2564748899     2.9934014095
 Kr    -0.6215804189    -1.4003158618     1.5039948629
 Kr    -3.4975005613    -2.6594017040     4.0958045905
