          2
Energy: -9.022991161294518E-6 Kcal/mole
 He     1.7529013177    -7.2728034283     4.8828491710
 He    -3.7769633208     2.8571391712     6.3033710070
          2
Energy: -3.0704715460389372E-6 Kcal/mole
 He    -0.6421004876    -5.8884734055     2.1497438007
 He    -0.3430826053     7.2330292384    -2.4777432185
          2
Energy: -2.49078271046025E-4 Kcal/mole
 He    -4.1825114752     5.9959514975     1.0484103940
 He    -4.5145439198     0.3936102037    -2.5844911842
          2
Energy: -0.01892337036775042 Kcal/mole
 He     6.1523719513     4.8755015290     3.3044073952
 He     6.0123554402     2.9183047870     5.5711556018
          2
Energy: -2.0387077944208267E-5 Kcal/mole
 He     3.7135458128     3.3803374320     0.5571865693
 He    -5.7326156116     2.4148139418    -3.0310680423
          2
Energy: -8.479815160509212E-6 Kcal/mole
 He    -3.1262923740    -3.8006054745     6.0995484011
 He     3.8220395925    -0.2756707043    -2.6945601187
          2
Energy: -0.002354134531262537 Kcal/mole
 He     3.2279880650    -2.1496153024    -2.4165352512
 He     3.6356058583    -6.6900443084    -2.8206791062
          2
Energy: -6.877018305154923E-6 Kcal/mole
 He     1.4087355040    -2.9566930252    -6.9510543868
 He     0.8469513560    -4.8726495660     5.0506085377
          2
Energy: -9.674494964732475E-7 Kcal/mole
 He    -7.3403914907    -4.3637596365     7.4946071080
 He     6.8416741697     3.7636578202     3.3185296481
          2
Energy: -0.019999999976404326 Kcal/mole
 He    -0.4726122276    -3.1101818696     5.1668920785
 He     0.9611101756    -1.6449057586     3.1597224188
