          2
Energy: -1.4034242415217273E-4 Kcal/mole
 He     0.9164490104     6.6025324209    -5.5362956667
 He    -3.6651775130     1.0928814509    -3.8658880064
          2
Energy: -2.959418260954181E-4 Kcal/mole
 He     0.5719431337    -1.6900209744    -4.0187946728
 He    -1.3651908198    -3.4131754957     1.9367405145
          2
Energy: -1.6256948025293824E-6 Kcal/mole
 He     5.5083073685     0.6060835837    -4.9963994303
 He    -2.5565740713    -3.9744225326     7.3883914860
          2
Energy: -6.868473975420511E-5 Kcal/mole
 He     4.2517630322     3.6136560343    -1.2597799424
 He    -1.4734409375    -0.8938747510     2.6927800190
          2
Energy: -1.4405978722686924E-5 Kcal/mole
 He     1.1077045234    -0.8110762149    -1.3452585511
 He    -6.8940591050     6.2689419735    -2.5823446178
          2
Energy: -1.0968311212346658E-5 Kcal/mole
 He     3.8250135632     4.8393725604    -1.5443159616
 He     0.8002249311    -4.0824303243     4.6156258523
          2
Energy: -3.0190389180781216E-6 Kcal/mole
 He     4.6941154509     7.0526881942    -2.8050278325
 He     3.6699568056    -6.8173976451    -1.6464147203
          2
Energy: -4.794646060447233E-5 Kcal/mole
 He    -3.9163682919    -2.4926457724     2.0765590211
 He     2.7606065434    -1.1843152514    -3.5072119919
          2
Energy: -5.682030984886136E-6 Kcal/mole
 He     6.9973509447    -2.2116047598    -5.3325511696
 He     3.4924300080     0.5713733683     6.4029539098
          2
Energy: -0.019999999989069147 Kcal/mole
 He     3.0278787297    -0.8561497518    -0.6975344712
 He     1.3142369033    -1.0211754276     1.5975666429
