          2
Energy: 6.5642958385945676 Kcal/mole
 H     -6.5704650949    -7.3174126513    -6.4765682913
 H      6.8492518892     6.9663376890     6.8905194656
          2
Energy: 6.558145682012878 Kcal/mole
 H     -6.9583235458    -7.1797394564    -6.5296035211
 H      6.6632100530     6.7679869996     6.9647396611
          2
Energy: 6.5568631149001 Kcal/mole
 H     -7.3230732978    -6.7872035286    -7.0072579548
 H      6.6480084033     7.1815723793     6.9922720832
          2
Energy: 6.495163910829184 Kcal/mole
 H     -6.7286273974    -7.4076006718    -6.9742409561
 H      6.7872590875     6.9540708806     6.7842537226
          2
Energy: 6.429479834075877 Kcal/mole
 H     -6.8227027430    -7.2753129625    -7.0256875110
 H      7.0721673140     6.8482288295     7.0208466417
          2
Energy: 6.484189969625376 Kcal/mole
 H     -7.0836695127    -6.5154539365    -6.8189053685
 H      6.8964303188     7.0899195603     6.9326876066
          2
Energy: 6.400727707331384 Kcal/mole
 H     -7.0469015110    -6.8104025610    -7.1920320213
 H      6.8417633534     7.1003603985     7.1209955660
          2
Energy: 6.398231795566382 Kcal/mole
 H     -6.9199869750    -6.9467726386    -7.2334830499
 H      7.0647510030     7.2535991422     6.8475840866
          2
Energy: 6.36215587896643 Kcal/mole
 H     -7.1292539778    -7.0225279029    -7.0089613844
 H      7.0403466949     6.9979799207     6.9911867209
          2
Energy: 6.337795685302016 Kcal/mole
 H     -7.0983915850    -7.0330457367    -7.0343309428
 H      7.0575979563     7.0594287749     7.0635617146
