          2
Energy: 6.602916004345303 Kcal/mole
 H     -6.7863311791    -7.3815575844    -6.9227479849
 H      6.9608561744     6.9507639427     6.3633221164
          2
Energy: 6.514186288307862 Kcal/mole
 H     -6.5462910428    -7.0283048064    -6.6916072049
 H      6.9155742632     7.2150682163     7.0026963641
          2
Energy: 6.431016427653429 Kcal/mole
 H     -7.1784671976    -6.8814058497    -6.9102390194
 H      6.7936431751     6.9554995515     7.0110558059
          2
Energy: 6.586400691941865 Kcal/mole
 H     -6.4954065821    -6.7341137958    -7.0546479931
 H      6.3558050042     6.9959935121     7.0563051154
          2
Energy: 6.486395288154874 Kcal/mole
 H     -6.9182990906    -6.9771195946    -7.4850057387
 H      6.5106146974     7.2126392799     7.0446221481
          2
Energy: 6.470027841552678 Kcal/mole
 H     -6.8724839163    -7.0760594363    -6.9843831149
 H      7.0224328209     6.6550670246     6.8391325838
          2
Energy: 6.439220069550402 Kcal/mole
 H     -7.2102600257    -6.8921041588    -6.9613488545
 H      7.0244074991     6.8537671166     6.8126793707
          2
Energy: 6.397498584882403 Kcal/mole
 H     -7.4083239738    -6.8015713731    -7.0722024473
 H      7.1626334552     7.0849561392     6.8880178466
          2
Energy: 6.370104099474972 Kcal/mole
 H     -7.2493585767    -6.7811948002    -7.2120689437
 H      7.1354280780     7.0102140321     7.0203738949
          2
Energy: 6.356424973791583 Kcal/mole
 H     -7.2411658152    -6.8341190497    -7.1915339132
 H      7.1354280780     7.0102140321     7.0203738949
