          2
Energy: 6.60238862304022 Kcal/mole
 H     -7.0316497282    -6.2205771241    -6.8327527321
 H      6.8535362066     6.9982598592     6.5548638101
          2
Energy: 6.677850040852547 Kcal/mole
 H     -6.7631964749    -6.3829583753    -7.2845910171
 H      7.0789826770     6.1570259162     6.7738548338
          2
Energy: 6.553808405311742 Kcal/mole
 H     -6.5820135842    -7.0739996099    -6.7482697729
 H      7.0325921360     6.8777650371     6.9762435399
          2
Energy: 6.602491378669566 Kcal/mole
 H     -6.4482378156    -6.9548173466    -7.1567653223
 H      6.9495371447     6.8643898727     6.4688343750
          2
Energy: 6.5773515945054974 Kcal/mole
 H     -6.4826919167    -7.1550606747    -6.9685793586
 H      6.6336740614     7.0190721716     6.8271118615
          2
Energy: 6.379418092914992 Kcal/mole
 H     -6.9779762136    -6.9596712505    -7.0975663403
 H      6.9808184278     7.0235773730     7.0521126185
          2
Energy: 6.414245486472488 Kcal/mole
 H     -6.8003889542    -7.4959323558    -7.0028389982
 H      7.2128802710     6.8601957937     7.0993165888
          2
Energy: 6.414969362694439 Kcal/mole
 H     -6.7997027909    -7.1938281855    -6.9809096098
 H      7.1085809037     6.9322619804     6.9698108027
          2
Energy: 6.369302846018574 Kcal/mole
 H     -7.2706432778    -6.9307037663    -7.0147833095
 H      7.0682225004     6.9547883042     7.0956766664
          2
Energy: 6.352136556150576 Kcal/mole
 H     -7.2680012397    -6.9410143729    -7.0100266647
 H      7.0674907318     7.0034168133     7.0734659963
