          2
Energy: 6.449253035141471 Kcal/mole
 H     -7.0700773197    -6.9706081560    -6.6067254316
 H      7.1575589570     6.9196475110     6.9052362559
          2
Energy: 6.4673450246132305 Kcal/mole
 H     -7.1154043267    -6.7851321799    -7.1374693879
 H      6.5032915167     7.1633649021     6.9491159362
          2
Energy: 6.499215615560058 Kcal/mole
 H     -6.9242362897    -6.8942403196    -6.8915362851
 H      6.9830102333     6.7692217927     7.3257432107
          2
Energy: 6.432619515360145 Kcal/mole
 H     -6.7946037263    -7.1186132096    -7.0339665118
 H      7.2087440975     6.7336348571     7.0623806429
          2
Energy: 6.485531719199287 Kcal/mole
 H     -6.8289411982    -6.8171542968    -7.3332607229
 H      6.8938671534     7.1936340939     6.5124170504
          2
Energy: 6.444535022551609 Kcal/mole
 H     -7.0598070731    -7.0506225501    -6.7088943659
 H      7.3136608174     6.8441120796     6.8154683747
          2
Energy: 6.430404283710775 Kcal/mole
 H     -7.2267878553    -6.8354110595    -7.1467114712
 H      7.0127858517     6.8722021209     7.0835937245
          2
Energy: 6.3648837551826 Kcal/mole
 H     -7.0589007758    -6.8600771988    -7.1279034465
 H      6.9742483916     7.0394390463     7.1584536803
          2
Energy: 6.360908545863783 Kcal/mole
 H     -7.1738084687    -6.9035456114    -7.0933697874
 H      7.0088241153     7.0169523011     7.1376404948
          2
Energy: 6.349182767136895 Kcal/mole
 H     -7.1738084687    -6.9035456114    -7.0933697874
 H      7.0088241153     7.0169523011     7.1376404948
