          6
Energy: -0.0036821324270308446 Kcal/mole
 He     1.8239540270     4.6975533744    -2.4839817407
 He     0.9830800907     0.0029791181     1.0621515971
 He    -4.1351016900    -3.3711334127    -1.1364637653
 He    -1.9200528127    -3.1547979206     4.6104868296
 He     1.7583912478     4.2833140947     4.4094254610
 He    -4.3798926940     4.2847006948    -2.8003550996
