          6
Energy: -0.24593773879122655 Kcal/mole
 He     0.8168586247    -2.1622194324     2.5744215650
 He    -3.1570517225    -1.0658450478     0.2626090544
 He    -1.3523982793    -0.3150308883     2.3325263981
 He    -0.4102440931    -1.7617900804     0.0381641314
 He    -1.2177837179     0.9892729676    -0.2116940088
 He     1.1922366914     0.3287244905     1.1662821502
