          6
Energy: -0.003498091731648057 Kcal/mole
 He     1.5621621873    -1.1519133511     2.9429695134
 He     2.3819464512    -6.7439437417    -5.6111598233
 He    -6.6449266114     2.3302791482     1.0050553858
 He     6.9778163506     4.0136868819     6.1223247969
 He     6.1820580533    -4.6159816199    -5.6056068317
 He    -1.8332779020     0.7690031942    -5.3310912030
          6
Energy: -0.001492386143011189 Kcal/mole
 He    -1.6099293895    -7.1063201563     4.2883866899
 He    -3.9625459710     0.9153609663     2.0939117963
 He     5.0610408193    -3.2377106983    -6.2808004871
 He     7.2704344473     2.1486572190     5.8716209508
 He     2.2212118129     1.6640387855    -3.0981555602
 He    -1.5195268686    -4.9632351911    -0.9317108534
          6
Energy: -0.01980294208049394 Kcal/mole
 He     0.7626080259    -4.1711056690     6.3894653385
 He    -0.3176850993     0.8602895006    -2.9310072035
 He    -5.7829723529    -3.3415157379     1.3259724630
 He     4.0803843433     5.2246229388    -5.9173422372
 He     4.6733775075     5.8023436852     6.7702879111
 He     1.7018657483    -2.7520250554     3.9451270688
          6
Energy: -0.004543381760451577 Kcal/mole
 He     2.5380285021    -5.5906826002     7.0752654194
 He     5.3803089602    -2.3866464693     7.4033099441
 He    -2.0066107477     0.8538228477     6.7143725402
 He    -3.8687607402    -1.5074857451    -7.3486314019
 He    -3.8789196256    -7.3697948878    -1.5695989410
 He    -1.2093896856     1.3674469694    -3.5192868740
          6
Energy: -0.024294334965022396 Kcal/mole
 He     4.3906822895    -1.2785469233    -7.2062049312
 He     5.5357744421    -3.2540777137    -4.4296814767
 He     0.1613784069     6.2388616144    -7.2044720658
 He     0.5370917015    -2.3373586220    -1.1064876997
 He     2.6755161934     1.6396884696    -1.3517459029
 He    -1.8991046746    -4.4203189026    -2.3569177456
          6
Energy: -0.018523677972328838 Kcal/mole
 He     5.1069439376     3.1511880938    -6.9114425273
 He     4.6154896233     3.6922461074     1.3998390042
 He    -7.1243842424     0.6190802719     3.6196801619
 He    -6.5511252417     2.4277468256     6.5791758068
 He     1.6260330851     1.5823021636     1.4179066832
 He    -6.0086779694     0.6345213594    -6.4010282372
          6
Energy: -0.04744377234249172 Kcal/mole
 He    -3.5747014740    -1.2040680174    -4.3054440722
 He     5.4672218703    -5.1476093289    -1.7471770530
 He     1.5679793907     0.4472479517     6.0019075545
 He     4.1981043567    -2.5814694822    -0.7084585307
 He     5.5463536973    -2.6001111455    -3.9544654716
 He    -0.9433821033    -2.4283272460     5.8253325991
          6
Energy: -0.004342578638876325 Kcal/mole
 He    -3.6025428801     5.4257461269    -0.8487523903
 He    -4.7511868095     4.0936791967    -7.2112305992
 He     2.5755675830     3.2029455052     0.1655153919
 He    -2.6416749239     0.8706799910     2.1934321631
 He    -2.5651828338     2.4734478372     6.6463920429
 He     2.7513946961     3.2353526075    -6.2716338458
          6
Energy: -0.026012708055320105 Kcal/mole
 He     6.4527776338    -0.1546051283    -4.4429904842
 He     0.0307427053    -2.5538471536     4.4080883592
 He    -6.2193904299    -2.7770420830     0.9879797354
 He    -5.4055411221    -4.1984100691    -4.4414115461
 He     5.5774331435     0.9092763715    -6.8246168565
 He    -0.0801643372    -4.4421350980     2.6308338449
          6
Energy: -0.14021761775605363 Kcal/mole
 He     2.6773296930    -1.2382087255    -4.4565030328
 He    -2.9929567430    -3.6634918065     3.5337993600
 He    -2.6573003393    -2.8530641911     0.7990092214
 He    -3.3840930594    -5.5757768455     1.4230600596
 He     4.2497845957    -0.0538826269    -6.5435993803
 He    -0.7418135624    -4.6228897330     1.9954132742
