          6
Energy: -0.24591177325832614 Kcal/mole
 He     3.2321385701    -2.9546445565    -1.5130090188
 He     1.0418410791    -1.1245664341    -1.3339997444
 He    -1.2351453350    -2.5123031549    -0.2422411689
 He     1.3868225275    -3.1429176919     0.6770993301
 He     2.3323835890    -5.5143120532    -0.5778881231
 He     0.5438356507    -3.8532445155    -2.0061074869
