          6
Energy: -0.0031557732048333675 Kcal/mole
 He    -4.5910725274    -4.6233946726     1.9389853069
 He     2.4293336943    -3.7096134603     2.2244187064
 He     1.3477515173     3.6458709262     1.7825555115
 He    -3.3127413212     2.0157326056     7.0360901018
 He     6.7040423121    -5.5333047695     0.3768952058
 He    -0.8536704269    -3.7829819807     7.2622515928
          6
Energy: -0.011509941941207788 Kcal/mole
 He     5.0620746658     1.6978161858    -4.9042563475
 He     7.0220336234    -7.0074635240    -4.8311463820
 He     4.5588729514    -4.7977641927    -3.6109273957
 He    -7.3565777265    -2.6230193761     2.2710039286
 He    -2.2232847035    -2.4104378391    -5.3676534899
 He    -4.4993288565    -6.3942125081    -2.0245320707
          6
Energy: -0.034585358862772184 Kcal/mole
 He     3.4905068236    -3.6597693457    -4.3288852700
 He    -7.2764861304    -4.2906699516    -2.0562392124
 He     3.5399291940     6.3370687107     1.9962330515
 He     0.4742608693     1.3878601790     6.8448548533
 He     1.7444294102     6.4016466599    -0.6061970513
 He    -0.6623510228     5.2171020446    -1.0687250231
          6
Energy: -0.0020081210498134484 Kcal/mole
 He     6.3144561070     4.1774603170     5.8594691557
 He    -4.9599676701    -5.5004671996    -6.2843850068
 He    -6.8054933515    -1.1801725453    -1.3153352851
 He     4.9326246185     4.8334757774    -6.8870654553
 He    -1.1588343724     2.4780162446     7.2254609722
 He     2.4685026115    -0.0706879417     4.5038697152
          6
Energy: -4.0396981880392083E-4 Kcal/mole
 He     0.2552756165     6.7656574407    -0.5508003708
 He     4.3531400026    -2.8859654032     3.2065966229
 He    -3.8869442942     0.3881106313     6.8687272401
 He    -1.4273912852    -7.4363113554    -3.9828047204
 He    -7.4288913493    -2.5716608761    -1.9513437073
 He     4.8645628293    -4.3815266607    -5.8251291819
          6
Energy: -0.022084360288806584 Kcal/mole
 He    -1.0672846154     6.3065767254     3.9425967041
 He     0.0697266756     7.0484655984     6.5492011388
 He     3.3866582665     5.0541480669     0.5144611485
 He     2.4649954776    -2.2503774825    -1.3980837805
 He    -5.7207472917     2.2513069547    -6.6028207459
 He     3.7871150847    -3.8948977883    -5.8791618762
          6
Energy: -0.007899206499815344 Kcal/mole
 He     0.1141011401    -6.1185722838     3.5836496641
 He    -2.6528621139    -7.0632862251    -5.8687990987
 He     1.7416565467    -2.7454048717     4.5936241405
 He     6.3682032137    -1.1962973278     1.2640232365
 He    -5.5580778918     4.0692090460    -3.5394033182
 He     1.0110250427    -2.8532495321    -1.7423620414
          6
Energy: -0.004370230111046709 Kcal/mole
 He    -6.6527791024    -2.4506366736    -2.9536179832
 He    -7.3341255266    -6.0410307733    -6.2956953745
 He    -2.8325836043    -7.0387948380    -4.3961886776
 He    -4.9904188818    -2.6869096555     3.1966846869
 He    -6.7946905746     3.5167728745     1.6409977027
 He    -2.5994682592     1.5658070459    -7.3775138624
          6
Energy: -0.0017015388155098524 Kcal/mole
 He     0.6793975128    -6.2285192448     1.9549532345
 He     0.3123582580     3.3251837183     0.9572366213
 He    -3.5176340127     7.2150899223     0.1239997280
 He     3.9407789683    -0.7003441920     3.7690213084
 He     6.4822460136    -6.2961893041    -3.3520758731
 He    -6.2090351334    -5.9509041686    -3.5080114116
          6
Energy: -0.24591177325832614 Kcal/mole
 He     3.2321385701    -2.9546445565    -1.5130090188
 He     1.0418410791    -1.1245664341    -1.3339997444
 He    -1.2351453350    -2.5123031549    -0.2422411689
 He     1.3868225275    -3.1429176919     0.6770993301
 He     2.3323835890    -5.5143120532    -0.5778881231
 He     0.5438356507    -3.8532445155    -2.0061074869
