          6
Energy: -0.01947756641018975 Kcal/mole
 He     7.1321523243     1.7588619599    -6.7459926950
 He    -4.2191197296     4.5991205754     6.4698572869
 He     7.4392420321    -3.9063926201    -5.2808406112
 He    -1.3564140955    -1.6123503942    -1.2610378828
 He     5.3466287450     6.3399610551     1.2972584182
 He     1.2907671660    -3.0368353874    -0.9962683323
          6
Energy: -0.0033442643199144985 Kcal/mole
 He    -4.9671331662     1.4959190207     5.5371899027
 He    -6.9804364021    -6.5483002540     5.9168354810
 He    -0.6877901374     0.2935121086    -1.2427075824
 He     4.2521155303    -5.4048066270    -5.1350710667
 He    -2.9146820768     0.0558109797    -7.3682357849
 He     0.5110349154     3.4903275616    -4.4275799146
          6
Energy: -0.011320300344081012 Kcal/mole
 He    -5.0068062323    -5.6202501404     7.1872432863
 He    -0.8715778798    -6.4353361771     2.9278517236
 He    -7.4044588715    -0.0511426458    -4.9960353454
 He     5.2070265377     5.2457013453     2.1233289517
 He     1.2336630107    -4.6565093752     6.9279657029
 He     2.5483108293    -5.7549230300     1.7383000953
          6
Energy: -0.0031926918163855894 Kcal/mole
 He    -6.1919507402     3.3102435724    -5.1567640224
 He    -6.0822007128    -1.7426202813     1.8277744317
 He     5.2958853390     0.6476153817    -2.4455763139
 He     4.8621588428    -4.5354912459    -4.4746731722
 He     0.4958627436    -1.0883170598    -5.2240896937
 He    -5.1590165751     4.1428609126     0.6143124935
          6
Energy: -0.008690964313313404 Kcal/mole
 He    -3.9570516179     5.7994446028    -6.4500180679
 He     1.2161075846    -0.9846316686     6.1337832446
 He    -4.9553096688    -3.0666370749    -5.7952956667
 He     1.4377628581     5.5212230536    -2.5800817793
 He    -6.9321174396    -0.0376158589    -6.4453679863
 He     4.6114664887    -7.2543812778    -3.9688558818
          6
Energy: -0.03751982754669404 Kcal/mole
 He    -2.6430793210    -0.7737711766     4.8178620317
 He    -2.9657040744    -4.0510796979    -6.0035082284
 He    -5.9633532689     5.2984066974    -4.5195395362
 He    -5.8810815198    -1.9193723589     0.2896153978
 He    -1.5552929279    -1.8745185198    -5.1382461324
 He    -3.1746864225    -7.1107298578    -6.1354287019
          6
Energy: -0.0047988869521482696 Kcal/mole
 He     0.0582811702    -3.4739587386    -5.9249520691
 He    -5.0058246748    -0.7088979421    -5.0679632267
 He    -6.3768333454    -2.1924240837     3.8380932954
 He    -1.1530039501     6.8897257559     2.1280937293
 He    -2.5402911270     7.2478894456     6.1456789068
 He     0.1366245284     1.3798178494     6.2590699732
          6
Energy: -0.00778031917205415 Kcal/mole
 He    -0.3181115736    -1.2080833674     4.4341073875
 He     5.9488410320    -6.6370502031    -4.3952693666
 He     6.4114723429     6.4744044943    -7.2290147535
 He    -3.4960672490     0.9454719474     5.6871038216
 He     4.3466023951    -3.2794042549    -1.9129142075
 He    -0.9678241423     5.9616161143    -0.2555756901
          6
Energy: -0.02463472102767436 Kcal/mole
 He     0.1869939944    -0.1465186462     4.3802503538
 He    -4.0175865454     0.9734605179    -1.6323142485
 He    -3.7487244046     3.7494866414    -2.7167844269
 He     3.2408080244     1.8946890681     6.4793117283
 He     1.5239892164     0.4454569951    -1.4196962098
 He    -4.7975392316    -6.7986250563     5.4426703921
          6
Energy: -0.24597818191431303 Kcal/mole
 He     0.2484528019     1.4067326322     2.6238505001
 He    -2.9299922697    -0.0544982959    -0.5606899194
 He    -4.1509104291     0.0217120854     2.0346019542
 He    -2.2291122658     0.8966816144     3.9603552474
 He    -2.2023616219     1.9951361682     1.3010204254
 He    -1.4241477765    -0.7433520081     1.7644641070
