          4
Energy: 27.823782197924203 Kcal/mole
 H      7.3394958150     7.4866916853    -7.4755024673
 F      6.4231637978     7.4535434738    -7.4642850543
 H     -7.4281325894    -7.4614733481     7.4227889277
 F     -7.3323395250    -7.0215210768     6.6239430804
          4
Energy: 27.714382140414124 Kcal/mole
 H      7.4632389962     7.4280827772    -7.4085004425
 F      6.5565078198     7.3174532010    -7.4890527278
 H     -7.4103353062    -7.4989621354     7.4753849334
 F     -7.1905344876    -6.6109302985     7.4123289528
          4
Energy: 27.858825057769675 Kcal/mole
 H      7.4528501446     7.2767329682    -7.3038172911
 F      6.5470727344     7.2613431142    -7.4460123528
 H     -7.4866465901    -6.4616460325     7.3669835321
 F     -7.3744140638    -7.3680426477     7.4490690731
          4
Energy: 27.763018243318115 Kcal/mole
 H      7.4710141264     7.4443113615    -7.4997655901
 F      6.5730161614     7.2586293355    -7.4964731670
 H     -7.4927311993    -6.8808522909     6.8567667850
 F     -7.1833224223    -7.4960998025     7.4622630344
          4
Energy: 27.655287700839324 Kcal/mole
 H      7.4364618322     7.4974873722    -7.2718690833
 F      6.5393775664     7.4642492159    -7.4590162046
 H     -7.3340455576    -6.5814371870     7.4144588733
 F     -7.4659617954    -7.4851128473     7.4972683364
          4
Energy: 27.57075436108229 Kcal/mole
 H      7.4886720922     7.4201210899    -7.4803012289
 F      6.5744672119     7.4875715427    -7.4564501653
 H     -6.5198464389    -7.4345059745     7.4403946482
 F     -7.4349105353    -7.4931792854     7.4505996554
          4
Energy: 27.536584384503314 Kcal/mole
 H      7.4612424130     7.4967798803    -7.4414863434
 F      6.5457906174     7.4563186282    -7.4761258741
 H     -7.4889716670    -7.4397994930     6.5791076014
 F     -7.4533885474    -7.4862322183     7.4942397468
          4
Energy: 27.576331298240202 Kcal/mole
 H      7.4209716328     7.4785509397    -7.4982940676
 F      6.5059551726     7.4396178764    -7.4522713106
 H     -7.4242061214    -7.4613568263     6.5781767631
 F     -7.4568242099    -7.4850886516     7.4942891256
          4
Energy: 27.5259134238302 Kcal/mole
 H      7.4848242928     7.4913861790    -7.4915468381
 F      6.5734082838     7.4077137415    -7.4349007291
 H     -7.4769447532    -7.4870574707     6.5776115997
 F     -7.4540265473    -7.4837252918     7.4943191062
          4
Energy: 27.510380570821194 Kcal/mole
 H      7.4834605900     7.4996691413    -7.4999432265
 F      6.5734806250     7.4072743495    -7.4344553201
 H     -7.4993914222    -7.4999942526     6.5786058922
 F     -7.4528358034    -7.4830390254     7.4942663613
