          4
Energy: 27.67211094752937 Kcal/mole
 H      7.4618361277     7.4191198490    -7.4641365016
 F      6.5480391661     7.3663264988    -7.4086660120
 H     -6.5362300833    -7.3885342780     7.4515132828
 F     -7.4529568055    -7.3999687282     7.4707582873
          4
Energy: 27.755334155766636 Kcal/mole
 H      7.4938619705     7.4998201219    -7.4830553159
 F      6.7999514699     6.9977234220    -7.1555249796
 H     -6.5305351341    -7.4852969541     7.4960995561
 F     -7.4301504717    -7.4431064597     7.3234692966
          4
Energy: 27.767543042107093 Kcal/mole
 H      7.4892232003     7.4866701928    -7.4986291978
 F      6.8014152339     6.9999255634    -7.1368435331
 H     -6.5582227187    -7.3512279999     7.3812098773
 F     -7.4620826395    -7.4589861490     7.4921802555
          4
Energy: 27.726301277828416 Kcal/mole
 H      7.4701413547     7.4551475903    -7.4434384638
 F      6.7472571252     6.8912142942    -7.4609492699
 H     -7.4876927520    -7.4272154231     6.5298199692
 F     -7.4655979674    -7.4142408858     7.4464619286
          4
Energy: 27.693714096878384 Kcal/mole
 H      7.4833533788     7.4441292747    -7.4963565699
 F      6.8480662678     6.7892086842    -7.4048234794
 H     -7.4119164317    -7.4488418905     6.5780658515
 F     -7.4730057158    -7.4812327190     7.4924552289
          4
Energy: 27.78228957955994 Kcal/mole
 H      7.3359747369     7.4986634403    -7.4943790890
 F      6.7220766629     6.8275842605    -7.3774565114
 H     -7.4505803042    -7.4852835628     6.5753273681
 F     -7.4717753475    -7.3467076878     7.4815483660
          4
Energy: 27.689979625578843 Kcal/mole
 H      7.4882956695     7.4723642351    -7.4414857336
 F      6.8759740830     6.7900458813    -7.4613084134
 H     -7.4908061332    -7.4842507036     6.5668176185
 F     -7.4257492452    -7.3775063695     7.4752570763
          4
Energy: 27.653867293406908 Kcal/mole
 H      7.4738786401     7.4887970139    -7.4659855474
 F      6.9099699769     6.7665283634    -7.4309996059
 H     -7.4997691510    -6.5916861510     7.4859623745
 F     -7.4745065732    -7.4996945464     7.3603775185
          4
Energy: 27.623971641105875 Kcal/mole
 H      7.4967707407     7.4960161584    -7.4993352500
 F      6.9283295046     6.7802344466    -7.4257139071
 H     -7.4926827012    -6.5931766722     7.4973966948
 F     -7.4748824930    -7.4996154777     7.3597709543
          4
Energy: 27.620963757155465 Kcal/mole
 H      7.4998502105     7.4935020024    -7.4998868273
 F      6.9281661459     6.7803678168    -7.4256846472
 H     -7.4997105768    -6.5935297848     7.4986182716
 F     -7.4745096804    -7.4995967459     7.3597061524
