          14
Energy: 1.760125184735152 Kcal/mole
 H     -0.9627252839     2.1798149569     3.2181533421
 F     -0.2834488556     2.7958283771     3.2181533421
 H      6.4480656648     3.2402747704    -2.6376062608
 F      5.5356407243     3.2402747704    -2.7290924779
 H      1.6016263247     1.1197934086    -4.7219524202
 F      2.5180288127     1.0866953729    -4.7219524202
 H     -2.8982082215    -0.2237329238    -2.0069849729
 F     -1.9812082215    -0.2237329238    -2.0069849729
 H     -0.6706730928    -4.9600015953     2.4803447163
 F     -0.6146252122    -4.9600015953     3.3956302647
 H      6.6038384371    -0.4096087858     2.1342902703
 F      5.7420145715    -0.0963219767     2.1342902703
 H      3.8517404051    -3.7249183000    -0.0724020637
 F      4.0389635116    -2.8272343309    -0.0724020637
