          14
Energy: -54.09530149817401 Kcal/mole
 H      3.9465085907    -0.5604655426    -0.7061792958
 F      3.7877980506    -1.2722576676    -0.1502548988
 H      4.7432179002    -0.2679434414     3.1092951206
 F      4.4548885033     0.4021272372     3.6649572882
 H      4.0140078830     1.6368508004    -1.1608278758
 F      4.3009145062     0.8408743286    -1.5143742600
 H      4.7440648609    -1.3825376329     1.1898038309
 F      5.2620428446    -1.3149155643     1.9434715722
 H      4.1427520652     3.4195437787     0.2255174736
 F      3.5496167346     2.9938387372    -0.3293290792
 H      5.4604330916     3.5686471922     2.0771336690
 F      5.2684194741     4.0022152381     1.2922524549
 H      5.2690238385     1.8388379744     3.5857107882
 F      5.7159518792     2.6233609030     3.4254981141
