          14
Energy: -54.11525357685663 Kcal/mole
 H      2.6277275474     0.6584362340     3.6657548091
 F      3.0859911409     0.6170992392     4.4589601620
 H      6.2764378239    -1.0357227304     4.5059203908
 F      6.5274331748    -1.9176760174     4.5129013247
 H      1.8652244133    -0.2322097114     1.7455617172
 F      1.9303180393     0.5777816307     2.1704921180
 H      4.7357892834     0.5958430076     4.4387733527
 F      5.6431499691     0.4883841216     4.3610676654
 H      2.3369824451    -2.4313351807     1.5712257617
 F      1.8973767691    -1.7631229519     1.1227524995
 H      4.1555902357    -3.4839640160     2.4539550025
 F      3.2389728623    -3.4816930545     2.4803450288
 H      6.1287623675    -2.8464363431     3.2019068217
 F      5.7927099789    -3.2901015137     2.4731276998
