          14
Energy: -54.11915522723227 Kcal/mole
 H      2.5247802554     0.8007352473     3.5538207963
 F      2.7609752947     0.7359773668     4.4375104026
 H      5.7402016478    -1.1593916288     4.2089909184
 F      5.9266653400    -1.9435906456     3.7717813652
 H      1.9867726876    -0.0011567690     1.5049716335
 F      2.2607356610     0.7679596716     1.9224559924
 H      4.3594251662     0.4946126014     4.7685951344
 F      5.2491189265     0.2850614893     4.8422317032
 H      2.3530798635    -1.9856427806     0.5248322454
 F      1.6583107123    -1.4728107934     0.8333580619
 H      4.5426567273    -2.5144015483     0.4441326557
 F      3.7374091064    -2.7903547655     0.1030826726
 H      5.9607774754    -1.9459259029     2.1224035865
 F      5.8776877664    -1.9030051461     1.2101849127
