          14
Energy: -54.11850857203582 Kcal/mole
 H      2.5457593809     0.7875215599     3.5308218330
 F      2.7758609400     0.7249078448     4.4162718853
 H      5.7606932988    -1.1557331817     4.2006218221
 F      5.9489236091    -1.9355009949     3.7563015460
 H      2.0028844377    -0.0104247719     1.4747187341
 F      2.2917898803     0.7515168137     1.8952751100
 H      4.3748518852     0.4884443623     4.7620084340
 F      5.2643708093     0.2808367605     4.8429044629
 H      2.3326883160    -2.0114943465     0.5169255256
 F      1.6459769141    -1.4725216969     0.7976833100
 H      4.5079551017    -2.5492199862     0.4663187983
 F      3.7058160848    -2.8575425682     0.1463200748
 H      5.9396317848    -1.9210749224     2.1048800186
 F      5.8306235758    -1.8705790544     1.1957835563
