          14
Energy: -54.11309968336991 Kcal/mole
 H      2.5966825067     0.7726133350     3.4518458154
 F      2.7880052921     0.6820184935     4.3440773809
 H      5.7732820299    -1.1782649185     4.2130885605
 F      5.9683555952    -1.9535122315     3.7638370632
 H      2.0923891944     0.0486449926     1.3623213586
 F      2.4103858319     0.7844824500     1.8076418890
 H      4.3744636995     0.4544844950     4.7506794030
 F      5.2612628486     0.2496768888     4.8626173929
 H      2.3383268383    -1.9743889812     0.4406322188
 F      1.6738342195    -1.3775086832     0.6481712979
 H      4.4764674231    -2.6015259818     0.5103689232
 F      3.6716534103    -2.9189878933     0.2064259360
 H      5.9270628735    -1.9428572683     2.1091738886
 F      5.8002942036    -1.8951685744     1.2022315019
