          6
Energy: -4.028601694617812 Kcal/mole
 Kr     1.5996709665     4.5060786598     2.3702240331
 Kr     5.8911653108     4.6708399751    -1.4062701912
 Kr     3.8914887012     7.4297376757     0.7893784427
 Kr     5.6412560345     4.2562182062     2.6215126569
 Kr     3.5938160163     1.7354076972     0.1611207773
 Kr     1.8568915450     4.9302683710    -1.6468752046
