          6
Energy: -4.0279394703816855 Kcal/mole
 Kr    -5.4539326213    -1.1905432755    -1.8772654766
 Kr    -5.7703568012     1.6986642784     0.9405179622
 Kr    -9.0638350924    -0.1973159946    -0.4112795377
 Kr    -7.7584588389    -0.8986601193     3.3441241346
 Kr    -7.4271736614    -3.8011307507     0.5237934563
 Kr    -4.1328932771    -1.8824432002     1.8668474105
