          6
Energy: -1.4309923193974512 Kcal/mole
 Kr     3.3779791406     1.1078719444     5.4830160517
 Kr     0.5475580620     4.0589075830     4.9608483300
 Kr     4.8495887048     0.2285790646     1.6450961218
 Kr     2.7878117806     5.4020708402     1.3900782744
 Kr    -5.5189020563     3.2986902896    -2.7556560630
 Kr     4.5887080047    -3.6329516039     1.9583214283
          6
Energy: -0.7019909327686158 Kcal/mole
 Kr     0.4185985054     6.7825487568    -1.1306453169
 Kr    -2.2711914306     6.9030347137     2.9841569230
 Kr     3.4175775044     4.7613027566     1.2097662524
 Kr    -8.8715925567     5.1466451450     0.9978741956
 Kr    -6.4240113323    -4.7283474024     9.0519891385
 Kr     3.9072187820     0.1865271142     3.1576660732
          6
Energy: -1.3219738046068197 Kcal/mole
 Kr    -1.4563863884    -6.9607741780    -2.1015252392
 Kr    -8.7261347718    -2.9756705315     1.7301020620
 Kr    -4.6233365715    -7.8095450070    -4.5415959926
 Kr    -4.3076571399    -4.4898083850    -2.8932829510
 Kr    -1.0470103633     3.1711121705    -5.9217408202
 Kr    -1.3430884349    -7.3361940538    -7.1382466868
          6
Energy: -2.5161894649226504 Kcal/mole
 Kr    -5.5137022966    -8.8338495977    -2.4714029009
 Kr    -2.6458265681    -4.6600092087    -1.4184310905
 Kr    -2.0091429172    -3.1893061144    -4.8046771187
 Kr     0.4951092227    -6.5854052869    -3.9223387009
 Kr    -6.1768592410    -5.0523138452    -3.0895055119
 Kr    -5.1580672764    -6.0639268514     1.1281148559
          6
Energy: -2.8734987120076836 Kcal/mole
 Kr    -6.1487773175     2.2376547441    -6.1468544519
 Kr    -2.6305074390     0.4728586968    -4.8989695286
 Kr    -0.4206393277     3.9322700454    -5.7910162155
 Kr     1.4560115514     1.2669992258    -3.1092796750
 Kr    -2.5001640683     2.6269538318    -1.1029265453
 Kr    -4.0006601251     4.9469379577    -3.6092954409
          6
Energy: -2.0740655214193153 Kcal/mole
 Kr    -2.2749268217     3.4829356067    -2.4490521988
 Kr     1.5242997865     5.2254129358    -3.9479597765
 Kr     2.9440972545     7.5620169376    -1.1998874188
 Kr    -8.9783943131    -3.2273981838     1.3225577457
 Kr    -1.3596988644     7.2745174587    -1.3045044858
 Kr    -3.1134127290     7.6689353953    -4.9034926426
          6
Energy: -3.343125558020349 Kcal/mole
 Kr     2.1417616561     3.9139950352    -7.9541392001
 Kr    -1.6105569509     1.4480204081    -9.0551778694
 Kr     2.4702428953    -2.3622759456    -4.3428287056
 Kr     3.3970418052     1.5453919048    -4.6447940643
 Kr    -0.6563903986     0.7534216321    -5.4392232480
 Kr     1.9811430861    -0.1264185226    -8.3074628829
          6
Energy: -3.4134087937100546 Kcal/mole
 Kr     5.6859831460     2.6630435243    -5.1570497286
 Kr     2.3534816596     5.0732599011    -5.1399082238
 Kr    -0.3321616314    -1.1377925778    -7.7378390586
 Kr     3.6887426016    -1.3764245947    -6.6572410606
 Kr     1.2205424696     1.1816294546    -4.6975179704
 Kr     2.5348480648     2.4785702238    -8.0532200099
          6
Energy: -3.7108456886080434 Kcal/mole
 Kr     2.6684935712     3.5430929071    -4.8587027867
 Kr     0.2437522582     4.0980769673    -1.4958376784
 Kr    -1.6849023719    -1.6793080828    -4.9897677485
 Kr     1.2690439954     0.3992346500    -7.3221360984
 Kr     1.5365782098     0.1435770856    -2.8981653691
 Kr    -1.2973603127     2.4128676923    -4.9198613821
          6
Energy: -3.8979926395719993 Kcal/mole
 Kr     2.5922090941     3.5874214365    -4.6733264630
 Kr     0.2436038323     3.6579691328    -1.3375013384
 Kr    -1.4036713157    -1.6035493811    -5.1213463858
 Kr     1.6005002846     0.4007556121    -6.9692971661
 Kr     1.4966714043     0.1401553685    -2.8966403935
 Kr    -1.2762773318     2.4253116241    -4.8949694262
