          6
Energy: -1.978075725620261 Kcal/mole
 Kr     2.5230755554    -0.5260337772     7.0329493172
 Kr    -3.0277851053     7.1825443635     4.5678021211
 Kr    -1.1973776381     4.4695130578     3.0914185282
 Kr    -0.3576211206     0.3305159427     4.2844221844
 Kr    -0.2165568995     3.6385107686     7.2153933504
 Kr    -5.7458459492     4.9334329609     2.6420725629
          6
Energy: -0.5560500020630701 Kcal/mole
 Kr     4.8320734435    -1.0281906327    -4.0371698843
 Kr    -2.2760133193    -1.4686848953     2.5579930919
 Kr    -1.1584175121    -5.2897183639     8.4480375177
 Kr     0.8169073890     2.0779731940     0.6539794643
 Kr     1.0047490240    -6.2326756140     5.4893141806
 Kr     5.2991641018     0.3755401788     4.2925460882
          6
Energy: -1.460084804964501 Kcal/mole
 Kr    -3.4679369689     0.0835960510     2.2494213396
 Kr    -7.3863981466    -5.5556260195     3.2195522960
 Kr     3.3529917089     3.1944144416     4.5636538133
 Kr    -0.0688262377     1.8776786346     2.4998930142
 Kr    -4.8957065211     0.5052167481     5.6364117795
 Kr    -1.4827844281    -1.2084683805     6.5933543618
          6
Energy: -2.253257327690859 Kcal/mole
 Kr    -6.1253581299     0.9323840061     4.4386225700
 Kr    -2.4227063367    -0.3066444324     4.6645257151
 Kr    -6.1647862667    -0.7425951673     8.5780417903
 Kr    -7.7879667642    -2.6333629245     5.7972208541
 Kr    -0.1939781349    -3.0520226100     1.8566734647
 Kr    -6.6126762400    -2.5023363939     2.0651872868
          6
Energy: -2.8788400441960253 Kcal/mole
 Kr    -8.0280788291     1.9784122004     4.9221129257
 Kr    -1.9474152003    -0.8291721129     5.2385707440
 Kr    -5.6952902184    -0.2672396426     6.5703423566
 Kr    -3.8956733610    -4.2357090232     7.3218591521
 Kr    -5.0589421625     0.0193210555     2.5481361989
 Kr    -8.4160684851    -1.8608282530     3.7542744593
          6
Energy: -3.342202528631825 Kcal/mole
 Kr    -4.7549789953    -0.5062947122     0.7290241969
 Kr    -5.9711017481     2.1795264021     3.0550585292
 Kr    -7.3933566251     3.9748128029    -0.0641674413
 Kr    -8.8267520993    -0.1142929639     1.2561255712
 Kr    -7.2274149218     0.6057012270    -2.1323782348
 Kr    -6.5257554958    -2.2423938023     3.8188365250
          6
Energy: -3.5125740738047337 Kcal/mole
 Kr    -4.0152350341     1.1584724172    -0.3497247652
 Kr    -6.9046926039    -0.2691362524     1.9202702305
 Kr    -8.2590812385     1.7052948224    -1.3737748954
 Kr    -6.8140418599    -4.3381927025     1.7157361542
 Kr    -6.2056195103    -2.0388803181    -1.6132908829
 Kr    -3.2460852400    -3.0815781409     1.3079325421
          6
Energy: -3.8437154367431168 Kcal/mole
 Kr    -3.5031345947     0.6112927196    -0.0788660678
 Kr    -5.6691925244    -0.4899683570     3.3386622998
 Kr    -7.4500933513    -0.3180974048    -0.0302313176
 Kr    -6.5803466791    -3.9663896832     1.6464603178
 Kr    -4.7616169567    -2.9044465613    -1.7626687430
 Kr    -2.5511188795    -3.1048770161     1.4660299647
          6
Energy: -3.9299988752963224 Kcal/mole
 Kr    -5.3535675716    -1.1762798039    -1.8659257022
 Kr    -5.7312737189     1.8387158359     0.8171313903
 Kr    -9.0341191418    -0.3007002704    -0.3909106129
 Kr    -7.6789319550    -0.9254788112     3.4844354374
 Kr    -7.3762031288    -3.8844191580     0.4421718119
 Kr    -4.2349018219    -1.8651175647     1.8124779956
          6
Energy: -4.0279394703816855 Kcal/mole
 Kr    -5.4539326213    -1.1905432755    -1.8772654766
 Kr    -5.7703568012     1.6986642784     0.9405179622
 Kr    -9.0638350924    -0.1973159946    -0.4112795377
 Kr    -7.7584588389    -0.8986601193     3.3441241346
 Kr    -7.4271736614    -3.8011307507     0.5237934563
 Kr    -4.1328932771    -1.8824432002     1.8668474105
