          6
Energy: -3.8979926395719993 Kcal/mole
 Kr     2.5922090941     3.5874214365    -4.6733264630
 Kr     0.2436038323     3.6579691328    -1.3375013384
 Kr    -1.4036713157    -1.6035493811    -5.1213463858
 Kr     1.6005002846     0.4007556121    -6.9692971661
 Kr     1.4966714043     0.1401553685    -2.8966403935
 Kr    -1.2762773318     2.4253116241    -4.8949694262
