          4
Energy: -0.09777341365318634 Kcal/mole
 Xe     2.3305895762     4.6395312811    -0.3337988916
 Xe     1.5832491574    -3.6683166485    -4.5926036429
 Xe    -5.9782798847     8.5135918218     5.3650239579
 Xe    -9.3536063404     6.8684924064     6.6512788705
          4
Energy: -0.10312260519602826 Kcal/mole
 Xe     4.4314083248    -7.4649058694     2.6418444615
 Xe    -8.8435104284     0.6241314389     0.5266806843
 Xe     9.0853189390    -7.2979799577    -1.7037969353
 Xe    -9.3919422716    -6.4284073736     6.3458907696
          4
Energy: -0.5868972946518362 Kcal/mole
 Xe     9.7926235533     9.9337188869     5.8354682016
 Xe    -6.0544734673    -2.5665991774     0.4415116315
 Xe    -8.5085066014    -4.4674389410    -2.6867093609
 Xe    -9.4757513142     2.4421939738    -0.0122536009
          4
Energy: -0.3324728090706477 Kcal/mole
 Xe    -0.2850528662    -3.5425641746    -7.0016767932
 Xe     0.5752913561    -7.4011539971     7.6774952127
 Xe     2.2727175185    -1.5337289517     1.7109115987
 Xe     6.4710784465    -2.4694119475    -1.0037017057
          4
Energy: -0.024816204328780365 Kcal/mole
 Xe    -4.1142157891     0.9177233354    -3.3894540576
 Xe    -1.8554842928     0.4858968831     6.4547956162
 Xe     8.1199847657    -8.2042814740    -3.1041725143
 Xe    -9.8267235461     3.3987265863     7.5056679851
          4
Energy: -1.5262167511330678 Kcal/mole
 Xe     1.3790112676     2.6515174184     6.8489815801
 Xe     0.7005960604    -0.3179243468     3.0781258085
 Xe     4.6205775658    -0.2285474197     5.2479740528
 Xe     2.7480756410    -5.3992719471     2.7085378754
          4
Energy: -2.134635112638499 Kcal/mole
 Xe     4.0060243036    -3.3068721700     4.9461399320
 Xe     6.2585369042    -4.8750918640     1.1501297499
 Xe     9.3995642521    -4.2332139092     4.9111750542
 Xe     7.0652233506    -1.0713191886     3.2123277613
          4
Energy: -2.516685521111777 Kcal/mole
 Xe     7.4070211862    -4.3820462217     3.9003202812
 Xe     3.8857231088    -6.8195328888     2.4885898722
 Xe     4.8588425790    -6.3077281607     6.9287847543
 Xe     7.7538040327    -8.6605092779     4.2037624683
          4
Energy: -2.460706453845102 Kcal/mole
 Xe     2.2958309581    -9.5909518340     1.2851034998
 Xe     3.7274680683    -5.6050465730     3.4090507993
 Xe     6.7210602444    -9.0988367842     2.5389851887
 Xe     3.3034190678    -9.3463569348     5.6015984243
          4
Energy: -2.5975748757952295 Kcal/mole
 Xe     2.3253619138    -9.2374500432     1.1774920607
 Xe     3.8989386098    -5.6768310628     3.2540012819
 Xe     6.5570686663    -9.1235811632     2.4997712569
 Xe     3.3023467306    -9.4470655110     5.4667290755
