          4
Energy: -0.04450163776022671 Kcal/mole
 Xe     9.7595135720     8.0999289483     0.5095917514
 Xe    -2.3414054736    -6.8319435539     9.8549813551
 Xe     0.9587712624     8.8279114304     9.0270971613
 Xe     6.6500943485     1.4709216446     1.2292777560
          4
Energy: -0.3684076991474664 Kcal/mole
 Xe     2.3663599751     8.3460116087    -1.9340272704
 Xe    -6.0257421242     7.2133012618    -3.5859500427
 Xe    -5.2387381586    -4.0408080817     0.3437270230
 Xe     4.3267936982     4.0769472571    -3.2610975701
          4
Energy: -0.052763146049657664 Kcal/mole
 Xe    -6.6204740614    -2.5826292621     6.1901766487
 Xe    -0.0872647033    -5.4395078911     3.7506082232
 Xe    -5.0337000683    -8.1752299614    -3.4096479920
 Xe     0.6174380783     6.3166032322     1.1106914571
          4
Energy: -1.0620983264524209 Kcal/mole
 Xe     9.4863014704     3.9306215027    -4.4041495794
 Xe     8.9825778564     8.8866210357    -4.1223291508
 Xe     7.5419777435     9.4777508527     8.9090723049
 Xe     9.6933720141     6.1494468313    -8.2569705780
          4
Energy: -1.0181174378247406 Kcal/mole
 Xe    -2.0071851475     6.2767890255    -0.9261310101
 Xe     6.5826461543     5.7939113501     9.3944021395
 Xe    -2.1995994534     9.0884478819    -5.7143242719
 Xe     0.5685662692     6.0903873573    -4.5942603988
          4
Energy: -2.4417558144720997 Kcal/mole
 Xe     5.6459028118     5.9271845014    -3.8788515999
 Xe     5.7639203084     9.6144781993    -6.1141737249
 Xe     2.3262171490     6.9423076505    -7.4092708715
 Xe     2.5353875882     8.8076857702    -3.2885915940
          4
Energy: -2.3697336677261185 Kcal/mole
 Xe     4.8954350554     4.6496288285    -8.9336278487
 Xe     5.3265481564     4.0995866508    -4.7731374772
 Xe     3.4069875540     7.8702137445    -6.1409664659
 Xe     0.7818203372     4.2512051169    -6.0702616516
          4
Energy: -2.534640970802745 Kcal/mole
 Xe     0.6302371086     0.3908380131    -6.1950685573
 Xe    -0.9070600811     4.4885818502    -6.9394280091
 Xe    -2.3586195301     2.0860405687    -3.2565137780
 Xe     1.8995173898     3.5919436229    -3.3967590306
          4
Energy: -2.5845721177731296 Kcal/mole
 Xe    -0.9504672701     3.6260505612    -4.0146474011
 Xe     3.4228824619     3.4618282879    -4.5520211480
 Xe     1.3096939380     0.3875881346    -2.0146632700
 Xe     0.9083156894     0.4627388354    -6.4145944878
          4
Energy: -2.5978230853320183 Kcal/mole
 Xe    -0.9769781033     3.5310671950    -4.0592327828
 Xe     3.3861526074     3.4842987415    -4.7014067694
 Xe     1.5257261955     0.4777360239    -2.0507707248
 Xe     0.8712212013     0.2791963208    -6.4101640985
