          4
Energy: -1.2640067492145792 Kcal/mole
 Xe     4.5303242637    -8.0974639866     2.7825893816
 Xe     4.7172872376    -3.3821267166    -4.3193653672
 Xe     1.3201850827    -7.3061184188     5.3345837384
 Xe     2.9437432262    -3.8430620704     2.8301201342
          4
Energy: -1.5856006902207742 Kcal/mole
 Xe     1.5814692077     1.2162222547     0.6071924679
 Xe     3.1749179597    -3.1756756395     2.6818594766
 Xe     4.0290175760     0.7977979270     4.3463401731
 Xe     6.1723756722    -2.7623626870     7.5046456583
          4
Energy: -2.017017554448154 Kcal/mole
 Xe     1.2330965742    -0.0821442751     5.0152546318
 Xe    -0.8343724782    -4.3717868077     3.6812707211
 Xe     3.6126284085    -3.4710883177     5.3857245456
 Xe     2.8414326778    -3.7761473337     0.9107967552
          4
Energy: -0.44254051083457174 Kcal/mole
 Xe     2.2899870470    -8.0489477010     5.0138650481
 Xe     1.7829429058     9.8705891548    -3.7997410530
 Xe     9.4188578653     9.3367456270     6.7748561500
 Xe     5.0898849544     8.3763879569    -1.1605642451
          4
Energy: -2.4046445844982456 Kcal/mole
 Xe    -4.2739766432     5.5626580869    -2.0059600228
 Xe    -2.2000360374     3.1536296526     0.7334381094
 Xe    -3.6262221664     7.1524604799     2.1783980256
 Xe    -0.5400478282     6.9651527705    -0.5945745645
          4
Energy: -2.399768908484424 Kcal/mole
 Xe     6.0159009618     8.1480835113    -1.8239983218
 Xe     2.1618069329     5.9920811055    -2.0772716881
 Xe     2.8266233381     8.9059712003     0.9665622818
 Xe     5.5356576503     5.3099984022     1.6711319646
          4
Energy: -2.5427936253995997 Kcal/mole
 Xe     4.5894884136     8.0071429549    -5.7109030961
 Xe     2.6986265572     6.8049375610    -1.9494804391
 Xe     6.6213234221     8.8778638715    -1.9684453625
 Xe     6.1038064163     4.6972824479    -3.5365982370
          4
Energy: -2.54615152583759 Kcal/mole
 Xe     4.9843879972     3.3675610272     1.7221957326
 Xe     7.0750322167     0.3307611607    -0.9379707407
 Xe     8.2709573415     0.5627890830     3.3495715534
 Xe     9.1111120464     4.0163547664     0.5180373881
          4
Energy: -2.4844610511647875 Kcal/mole
 Xe     2.3775440999     3.8450757364    -3.2600096887
 Xe     3.0040519178     8.2825501747    -4.2355016825
 Xe     4.4510518910     5.0932682636    -6.7965860352
 Xe     6.3406861146     5.8436500186    -2.4655438245
          4
Energy: -2.5977866555951863 Kcal/mole
 Xe     2.4643311552     3.9914727522    -3.3017983319
 Xe     3.0663750184     8.3057628224    -4.0862101516
 Xe     4.9871705463     5.2930248880    -6.6779195975
 Xe     6.3830622900     5.8544222514    -2.5163351050
