          4
Energy: -0.001037113939411264 Kcal/mole
 Ne     2.1393401546    -7.4456989300    -6.3711092228
 Ne    -5.1303489042    -7.4395770744     2.1255641990
 Ne    -1.0058299741     7.1282039199    -0.1374365624
 Ne    -2.4845808484     1.2952252417    -4.4539819718
          4
Energy: -0.002271300786891801 Kcal/mole
 Ne    -4.6054456334    -0.0107469857     6.2128448481
 Ne     5.3847192383     6.5709393467    -0.3489880867
 Ne    -4.8495736990    -2.0779499899    -5.7507320574
 Ne     0.7493142038    -1.5477115700     3.2239891982
          4
Energy: -0.005326666780254937 Kcal/mole
 Ne     3.4749064532    -4.5571472355     0.0836968522
 Ne     6.9499840999    -5.9014554811     4.0855840306
 Ne    -5.7655722587     3.5975986109     2.4841466719
 Ne    -0.4515430985    -3.8717742178    -6.6585027541
          4
Energy: -7.747928705712173E-4 Kcal/mole
 Ne     6.3316493515    -7.1642957929    -5.1935756523
 Ne    -0.3974719591    -2.6897809882     4.6764891360
 Ne    -1.4472228303     5.9052558114    -7.1375110913
 Ne     0.8914639423     4.7770565277     4.3348785193
          4
Energy: -0.004518430648924629 Kcal/mole
 Ne    -7.0004250369    -0.3894185109     7.3298302952
 Ne     5.8439718802    -2.2272954366    -2.4096949636
 Ne     3.5099422007     3.0046401752     5.9454133229
 Ne     1.3066988804     4.7662302269     1.1003986822
          4
Energy: -0.0011338262490872574 Kcal/mole
 Ne     6.4687336502     7.2937624861     3.2447413747
 Ne    -5.7166681196    -0.2319861997     3.2444585019
 Ne    -2.0163924974    -0.4875053936    -5.2346274327
 Ne     2.6275838314    -0.6283838151     2.1836986238
          4
Energy: -0.0038065009428017377 Kcal/mole
 Ne    -4.3771482168     6.1653983962     3.8676991227
 Ne    -3.5068814628    -5.3728479267     4.7117665587
 Ne    -7.0707924093    -6.1531763139    -2.2819730667
 Ne     1.8756045250    -6.9714713625     3.0204584956
          4
Energy: -0.08269813011936482 Kcal/mole
 Ne    -1.5980576801     1.6252630701     3.3146624367
 Ne    -4.8473035660     3.1009046894     2.1736839116
 Ne    -2.1978399128    -1.8234912520     2.0772605001
 Ne     7.2881850157     1.9233154180    -3.0605671418
          4
Energy: -6.1227034656777E-4 Kcal/mole
 Ne    -4.2542669961     6.4628039868    -6.3769207876
 Ne     2.3569671302    -4.4095759541     7.0377836491
 Ne    -6.3462520333     1.6741586697     6.5401611105
 Ne     0.8822372147    -7.3407374554    -0.2928271030
          4
Energy: -0.41392867819454043 Kcal/mole
 Ne    -3.9791302769    -2.1720066224     5.1588234364
 Ne    -1.3060645700    -3.5615091202     4.2923950883
 Ne    -3.9996625114    -4.3420158112     2.9252343287
 Ne    -3.4636869496    -5.1665497870     5.8816841182
