          4
Energy: -0.0015397274010496523 Kcal/mole
 Ne     3.1022153636     5.7744376190    -3.1441208867
 Ne    -4.0898135983    -4.0000240123     3.3616607890
 Ne     5.7795723981    -2.9848448002    -4.6443765635
 Ne     5.1283550423     6.3382827920     3.3654114896
          4
Energy: -0.05116834371806716 Kcal/mole
 Ne    -4.7330286534     3.9343639640     3.8187218167
 Ne    -4.2189476286     2.5858479791    -4.0837753903
 Ne    -7.4688591859     6.3638935092    -1.9024772062
 Ne    -1.8382147340     2.5514197044    -1.2489886688
          4
Energy: -0.010135968921049685 Kcal/mole
 Ne    -0.5801320662     5.0004215001    -6.6301410304
 Ne     3.3041396761     6.9428321155     6.7858603470
 Ne     6.2248788149     6.5182975910    -1.1630992179
 Ne    -4.1418502424     3.2798518691    -3.8215394065
          4
Energy: -0.057084886783254345 Kcal/mole
 Ne    -3.2352544083    -4.4200205247     1.9941493028
 Ne     2.8348413635    -2.2605263330    -2.7797002666
 Ne     3.8247616639     4.1372185074    -3.3503124303
 Ne    -1.5727853127    -7.1375324335     3.3290298402
          4
Energy: -0.0016984308997031019 Kcal/mole
 Ne    -4.5589036015    -1.0769013597     6.3949962357
 Ne     1.2875311461     0.1186890221     0.4482453284
 Ne     0.9472855731     1.1099561966    -7.1101470761
 Ne    -5.0337052247    -3.9914812118    -4.7372001113
          4
Energy: -0.012099517645865936 Kcal/mole
 Ne     3.8842717902     7.3956491752    -6.8206803533
 Ne     5.9322789458     1.6116197320     6.1435978633
 Ne     3.9438868557     5.3329729833     4.1812828669
 Ne    -4.8508605823    -2.8331087493    -4.1896841555
          4
Energy: -0.05403652229123981 Kcal/mole
 Ne    -3.4129669233    -7.1705973200    -4.7454048312
 Ne     6.3403805564    -4.1162030172     0.3451593552
 Ne     3.4385769949    -3.1902870289     2.0217399614
 Ne    -3.1375191318    -5.0785346686     6.2186296193
          4
Energy: -5.463456207682026E-4 Kcal/mole
 Ne    -1.8439156888     6.9801968521    -6.6489559639
 Ne    -3.6190008175     1.9308170858     0.1848766791
 Ne     5.2295987519    -0.9160149588    -6.5951548991
 Ne     2.8376066438     7.0226330156     7.0928619772
          4
Energy: -0.1352572314618577 Kcal/mole
 Ne     5.6898464972    -3.1099555366     3.5114111535
 Ne    -1.1753324544     3.1319357378    -6.8584746550
 Ne     4.2104606787    -0.9136400900     1.6349847294
 Ne     5.6444837215     2.0093073817     2.1622222254
          4
Energy: -0.4139410666678837 Kcal/mole
 Ne     3.8650104874    -2.5713378160     4.4255162272
 Ne     1.2855764838    -1.4088322280     3.1389329187
 Ne     3.9967562238    -1.2838506656     1.5883699039
 Ne     3.5547524020     0.5127787053     4.1019482154
