          4
Energy: -0.06653419997074089 Kcal/mole
 Ne    -7.2116355524     0.6346114553     4.2060206788
 Ne    -5.8386882182     1.9166817066     1.3170459373
 Ne     3.4981529634     6.2891957156     6.4225611450
 Ne    -5.6653347287     4.1684596013    -2.8450680275
          4
Energy: -0.02362548912846198 Kcal/mole
 Ne     6.7085395713    -3.2327704860    -3.8643326565
 Ne    -5.7618368172     4.9788079291     3.9576127714
 Ne     6.1934246509    -6.7552746832    -5.9423916672
 Ne    -6.3247959321    -0.2347505969    -6.2739452779
          4
Energy: -0.10124890278769194 Kcal/mole
 Ne    -1.9994762622     0.2080039311    -2.3562310124
 Ne    -4.2739711237     5.3033362599     0.6236030040
 Ne    -3.6767877752    -2.5462977537    -2.5127511498
 Ne    -5.8945326436    -4.0117174929    -5.3972317095
          4
Energy: -0.03964336250111551 Kcal/mole
 Ne     1.6253972373    -0.1352826658     0.5935764045
 Ne     1.2573612444     1.5730739894    -1.6774368437
 Ne    -3.6524111151     6.6920014331    -2.9375325825
 Ne     6.5664091636    -4.6958299541    -6.9395799736
          4
Energy: -0.006660741256329801 Kcal/mole
 Ne     6.4095074679     0.8112803163    -3.3026816727
 Ne     1.3221963943     3.0987146948     0.8142120969
 Ne    -0.9937041970    -2.5247955488     4.8329793375
 Ne    -6.4806293883    -2.5519678458     4.3793669166
          4
Energy: -0.0682655914331653 Kcal/mole
 Ne    -4.2253436267     6.3947594622    -5.0709339412
 Ne     6.0855373513     3.4234565852     3.5017028740
 Ne     7.2599782313     6.2503445853     3.5992746071
 Ne    -3.7815326308    -2.6520212091    -1.9101832434
          4
Energy: -2.3429232227401548E-4 Kcal/mole
 Ne     7.4834822125    -6.4255570119    -0.1463485111
 Ne    -3.9604481158    -4.0344488986    -4.8849933628
 Ne    -6.3885557934    -6.4742648108     5.3652433459
 Ne     7.0258021759     3.8749334809     1.7523247504
          4
Energy: -0.05005351643251055 Kcal/mole
 Ne    -0.6555371119    -4.7819768767     7.3912802603
 Ne    -0.3282868338     5.8088293836    -5.0569280814
 Ne    -3.5727892941    -4.3537776764     5.4425227909
 Ne     1.2409407863     6.8732528364     5.8897845127
          4
Energy: -0.10950484560936916 Kcal/mole
 Ne     6.2121538410     4.1460150381    -6.6433253815
 Ne    -4.7311383557     4.3911613500     4.4595504969
 Ne    -1.4238786259     5.1774998803     6.3698625590
 Ne     0.0482413641     3.5421341343     4.1086398553
          4
Energy: -0.41397108999603727 Kcal/mole
 Ne    -1.3618418476     6.4557139738     1.6939834994
 Ne    -3.5083502786     4.8611868685     3.2976591091
 Ne    -1.6546948155     6.8822198794     4.7759734735
 Ne    -0.4807484527     4.2123230860     3.6836290405
