          4
Energy: -0.001296676521665786 Kcal/mole
 Ne     3.1104233388     0.5545145593    -6.1163058600
 Ne    -3.8175581353    -4.5368942056     0.8542221026
 Ne    -4.9693118555     1.7682166649     4.6920907967
 Ne    -7.4637426275    -5.5277770999    -6.4303520673
          4
Energy: -0.0035384189660710545 Kcal/mole
 Ne     1.6186620475     2.6965448712    -0.2361558494
 Ne     4.3981377653     0.3155476070     6.8244141475
 Ne    -5.9424076364     3.3522198276     6.9794308060
 Ne     0.9354600657     6.7160284515     4.8382358833
          4
Energy: -0.0029030623601820366 Kcal/mole
 Ne    -1.0658378449    -1.6067823050     0.8172352082
 Ne    -3.3530771112     6.3496278791     0.9939506635
 Ne     5.7361700964    -3.3491680029    -5.0576028018
 Ne    -1.9826382201    -7.4870398028     2.5795717223
          4
Energy: -0.06491106756804907 Kcal/mole
 Ne    -2.8450298913     6.8965404790     3.3184553950
 Ne    -2.9875771135     6.7368668122     0.3505767181
 Ne     6.7247126080     5.3309431718     5.0427094213
 Ne     6.3891038656    -0.2270084720     3.2235956687
          4
Energy: -0.06566204645801776 Kcal/mole
 Ne    -7.2779957870     1.2905379369     5.3838009562
 Ne    -6.4302316897     4.2927059692     4.4390114615
 Ne    -5.2948917733    -6.7116411464    -1.7731808290
 Ne     1.4377110373    -3.3167889489    -7.2180814352
          4
Energy: -0.07107621193954444 Kcal/mole
 Ne    -0.6384007408     6.6533746814     7.1447223874
 Ne     2.5770678573    -3.6165219844    -4.9054766057
 Ne    -0.6054407770    -2.5546667207    -1.7598003668
 Ne    -2.1777500561    -5.5835253663    -1.4117026610
          4
Energy: -0.07702087955137502 Kcal/mole
 Ne     3.4871641494     0.4717875362    -0.0107580899
 Ne    -1.1640113327    -2.1838162394     1.9145214824
 Ne    -2.0049469166    -5.5318892277     1.6384066918
 Ne     4.4146521073    -1.0115330315    -3.9582958094
          4
Energy: -0.02047351086330017 Kcal/mole
 Ne    -5.5900440058    -1.8287269947     5.9235586838
 Ne     3.6623950773     4.6129135903    -3.7453212263
 Ne     5.0035158824    -6.3529475192    -5.3457453877
 Ne    -5.4505293756     2.3466052650     5.2386372348
          4
Energy: -0.2486692787855471 Kcal/mole
 Ne     0.9549023074     3.2206208070     2.1535021019
 Ne    -2.1804832150     2.2700335811    -1.6492927617
 Ne     0.3630570955     0.5850602094     1.0571957505
 Ne     1.3319811138     2.3416826220    -1.3326741987
          4
Energy: -0.4139252562702521 Kcal/mole
 Ne     0.1718579134     3.5603497052     1.4690767190
 Ne    -1.3733597887     2.3214363633    -0.9327633368
 Ne     0.4258639780     0.5098036999     0.8480776242
 Ne     1.7342151761     2.6230834002    -1.0563588169
