          22
Energy: -87.23652016518456 Kcal/mole
 H      2.4767535916     4.3073347015    -4.8832402755
 F      3.3036245952     4.5395626392    -5.2045555854
 H      3.8500067998     3.1257248212    -0.0229543209
 F      4.1064138371     3.0447761954     0.8537393264
 H     -0.2986520850     0.4361644196     1.9767844641
 F      0.0021270604     0.0821918240     1.1861364341
 H      2.2609885535     1.7184451519     3.7163932605
 F      1.6329626610     1.9582619111     4.3400601591
 H      1.0588573761     3.0604389165    -3.6124452369
 F      1.1074534846     3.8499578539    -4.0763280516
 H      0.9866881552     1.0248095967     0.2669868254
 F      1.4949871877     1.6069076396    -0.2266557194
 H      4.4273145393     4.7345141331    -4.0031601702
 F      4.9112442766     4.7409441100    -3.2242765686
 H      3.4929088540     1.8572887598     1.8235310522
 F      3.1484182661     1.2369640835     2.4044032678
 H      1.2283785452     1.6416537101    -1.8735517382
 F      1.0215194081     1.6438336086    -2.7669125530
 H      0.1260651358     1.5091843640     3.8324818166
 F     -0.6231044939     1.2112257588     3.3956128024
 H      4.0593401994     3.8498562119    -2.1538330619
 F      3.4931192218     3.3386844181    -1.6449261924
