          22
Energy: -87.24138057057755 Kcal/mole
 H      2.4784135788     4.2899477623    -4.8682867464
 F      3.3027552765     4.5337948776    -5.1874862919
 H      3.8525742584     3.1343597694     0.0101317755
 F      4.1158839003     3.0381170870     0.8832264888
 H     -0.2059464313     0.2766919648     1.9686864546
 F      0.1010088165    -0.0297279760     1.1607419665
 H      2.2403411438     1.7295857444     3.7611722262
 F      1.5945787405     1.9518388499     4.3731227762
 H      1.0795962654     3.0218836495    -3.5968490897
 F      1.1148717156     3.8107392109    -4.0630588557
 H      1.0837083353     0.9505071965     0.2665099215
 F      1.5848064080     1.5455256681    -0.2190235377
 H      4.4187320428     4.7339731921    -3.9852052360
 F      4.9025168611     4.7465848757    -3.2063071714
 H      3.4930097763     1.8550942391     1.8697075230
 F      3.1476983509     1.2444486460     2.4602674092
 H      1.2913569037     1.5990560701    -1.8617077868
 F      1.0696030802     1.6049982303    -2.7514712005
 H      0.1468728999     1.3501451704     3.8605619586
 F     -0.5659555229     0.9753405851     3.4220574974
 H      4.0488007157     3.8826114030    -2.1206568436
 F      3.4809923597     3.3812438925    -1.6038268036
