          22
Energy: -87.24399856057542 Kcal/mole
 H      2.4910705350     4.2651762745    -4.8613064095
 F      3.3170338302     4.4924939928    -5.1884153974
 H      3.8620031544     3.1240193519     0.0057815970
 F      4.1150575615     3.0385862733     0.8830236708
 H     -0.2342389006     0.3103986974     1.9725578574
 F      0.0574980771     0.0094961948     1.1569377131
 H      2.2500824904     1.7212118860     3.7571195511
 F      1.6106174665     1.9458573840     4.3747827955
 H      1.0718296906     3.0303382418    -3.5760131452
 F      1.1195432757     3.8161611252    -4.0462203439
 H      1.0637698919     0.9709113837     0.2817815234
 F      1.5800547147     1.5570454450    -0.1986202293
 H      4.4484556499     4.6881878433    -4.0006255406
 F      4.9397090859     4.6990476616    -3.2263897070
 H      3.4902618839     1.8504993713     1.8604820557
 F      3.1463634798     1.2368201283     2.4487172760
 H      1.2724665989     1.6096497421    -1.8336018987
 F      1.0403886230     1.6164975271    -2.7207219137
 H      0.1552259374     1.3606885919     3.8729655430
 F     -0.5657154655     0.9953199177     3.4397932616
 H      4.0810063949     3.8419507089    -2.1344328409
 F      3.5085035056     3.3473071893    -1.6163042563
