          16
Energy: -62.19454418170855 Kcal/mole
 H     -2.4662866729     3.6782450301    -4.9209557865
 F     -2.7952704257     2.9165546101    -5.3114508498
 H     -0.8386132900     5.0601198511    -4.2562046799
 F     -1.7417294043     4.9415638756    -4.1503048938
 H     -2.9319070034     1.5418263503    -4.4057240364
 F     -2.9103704844     0.7868721877    -3.8856573189
 H      0.2615016600    -0.7787997169    -3.3244451739
 F      0.9791846813    -0.5903896537    -2.7856300580
 H      2.0470555309     0.5496294335    -3.3118773544
 F      2.5591862510     1.2428929509    -3.6249217939
 H     -1.7549158587    -0.3607467097    -4.1795364152
 F     -1.0424311464    -0.9191105997    -4.3261116559
 H      1.3074842025     4.6091213242    -3.8207591885
 F      0.8047351799     5.0812471183    -4.4251015211
 H      2.3147545608     2.7743368210    -3.0402880968
 F      2.0841772989     3.6146000481    -2.7544895041
