          16
Energy: -62.192719056226366 Kcal/mole
 H     -2.4028910352     3.6075948200    -4.8470628969
 F     -2.6934496486     2.8506012216    -5.2753447949
 H     -0.8539145469     5.0458972259    -4.1160837962
 F     -1.7466302270     4.8672164490    -4.0064439564
 H     -2.9293120786     1.4773692379    -4.3901307506
 F     -2.9646419820     0.7204641370    -3.8736663605
 H      0.2207450803    -0.7945492331    -3.2333582789
 F      0.9502421507    -0.5508004361    -2.7340492081
 H      1.9991349864     0.5508850405    -3.3799203279
 F      2.5003185713     1.2213029912    -3.7544116971
 H     -1.8210093894    -0.4636841255    -4.0801805481
 F     -1.1134928626    -1.0383263025    -4.1806580723
 H      1.3336977200     4.6659459769    -3.7843346338
 F      0.7833455320     5.1755748130    -4.3118570679
 H      2.3662274085     2.7576490455    -3.1568473380
 F      2.1961922696     3.6041406030    -2.8479313386
