          16
Energy: -62.236908866393904 Kcal/mole
 H      1.3589469840     0.0256703026     1.1649671655
 F      0.7773934585     0.2521275683     1.8368314402
 H      1.8042264407    -0.0828892732    -0.9812019561
 F      2.2592137975    -0.2478148386    -0.2023084697
 H      0.1624788441     1.7919211199     1.8841555233
 F     -0.1823490470     2.6413811140     1.8641444302
 H     -3.5846983242     3.6462296123     1.2011597086
 F     -3.9921974201     3.9553406340     0.4400527102
 H     -3.2426128652     3.5643960069    -0.9870995754
 F     -2.7370755786     3.2555402229    -1.6870489711
 H     -1.7636276469     2.8798487483     2.2708062781
 F     -2.6604574548     3.0066176379     2.4140366668
 H     -0.0368594151     0.6308911238    -1.8492253768
 F      0.7591377641     0.3219645149    -2.1836530090
 H     -1.8480775006     1.9217730939    -1.3115486704
 F     -1.3624468748     1.1996571987    -1.0224111093
