          16
Energy: -62.194432743427114 Kcal/mole
 H     -2.4371473888     3.6466169735    -4.9210363237
 F     -2.7634241028     2.8924857325    -5.3281217905
 H     -0.8156730484     5.0368483531    -4.2442465891
 F     -1.7144377159     4.9007281453    -4.1234891399
 H     -2.9291204717     1.5041518125    -4.4500230538
 F     -2.9226689818     0.7403778532    -3.9425817099
 H      0.2712404432    -0.7769026980    -3.3228003583
 F      0.9788033466    -0.5881548083    -2.7708782879
 H      2.0627548754     0.5441241912    -3.2805158751
 F      2.5854092409     1.2321540732    -3.5876580176
 H     -1.7378687574    -0.3787021172    -4.2115010706
 F     -1.0112821798    -0.9215620285    -4.3466456668
 H      1.3258508788     4.6101375114    -3.8370529414
 F      0.8230356098     5.0853530990    -4.4389133493
 H      2.3267799417     2.7655180950    -3.0355437623
 F      2.0918707207     3.6096074890    -2.7649522753
