          16
Energy: -62.18779533988652 Kcal/mole
 H     -2.0503500446     3.4578703478    -5.3440642447
 F     -2.2156037644     2.6406001526    -5.7257049608
 H     -0.7428920765     5.0722341724    -4.5396961492
 F     -1.6315318363     4.8478776881    -4.5692350271
 H     -2.6686373401     1.3541493438    -4.7942253781
 F     -2.8273461770     0.6418858942    -4.2389044947
 H      0.2415673526    -0.6733261490    -2.9651976227
 F      0.8903339490    -0.3437796295    -2.4071743303
 H      1.9742703095     0.7350335648    -3.0362481764
 F      2.4964282077     1.3866453267    -3.4152498138
 H     -1.6621344818    -0.5175397599    -4.1210722754
 F     -0.9405597071    -1.0780333098    -4.0431888694
 H      1.3547172477     4.8083133875    -3.8240602942
 F      0.8900098320     5.2811289450    -4.4576070300
 H      2.2761391855     2.9483965929    -2.9451396520
 F      2.0625699470     3.8096689694    -2.7138669259
