          16
Energy: -62.17682643233931 Kcal/mole
 H     -2.0167536115     3.1718533109    -5.7002892843
 F     -2.2358250838     2.4471542202    -6.2176942687
 H     -0.6727028787     4.7262332769    -4.7528496695
 F     -1.5135734910     4.3670174813    -4.6836425489
 H     -2.5161801689     1.0025008444    -5.4594779188
 F     -2.5702998825     0.2165758569    -4.9901358572
 H      0.5955572955    -0.5734260767    -3.5165300458
 F      1.1161560770    -0.2021327927    -2.8592574951
 H      2.2581704258     0.9059978178    -3.2951627824
 F      2.8251288425     1.5677405852    -3.5807212940
 H     -1.1902831377    -0.6694842858    -4.8534457275
 F     -0.3697314465    -1.0672885166    -4.7568242177
 H      1.4494775758     4.8515890343    -4.1951561412
 F      0.8968705833     5.2047011149    -4.8361135271
 H      2.5607338619     3.1622003046    -3.2057055122
 F      2.3227779578     4.0334090148    -3.0467672509
