          6
Energy: -0.01211796628000228 Kcal/mole
 He     0.7569903834     2.7612707700     2.3250500521
 He    -0.9825154737    -2.6863127955    -6.3618460637
 He    -2.1431714010     6.8922730682     3.6441905694
 He     3.9059250102     3.6797189505     4.2991183975
 He     3.4217450857    -6.7449484680     3.2696852526
 He    -1.5013529271     4.1160567916     7.0112751901
          6
Energy: -0.02139457334582907 Kcal/mole
 He    -1.5195585618     7.2705561024    -0.3641419808
 He     6.6193526483     1.5663302103     5.9623147830
 He    -2.3686045370     5.3485906060     6.5789030804
 He    -2.8925973135     6.8820513791     3.4165318012
 He    -2.0506249805    -4.9294192833    -7.2961199504
 He    -0.0235521591    -1.8537909782    -6.4085652889
          6
Energy: -0.01570972186384677 Kcal/mole
 He    -4.4834991760     2.2439610186    -5.1294960864
 He    -3.8019130820    -7.3602025167    -5.5119602068
 He     6.2675988087    -6.8945531106     2.4763211938
 He    -7.1403134496     1.8767930025     5.8659627119
 He    -5.8860159657    -2.5491617847     5.2136861201
 He    -5.3469506764    -5.6803671249     4.2842704339
          6
Energy: -0.007820673433905292 Kcal/mole
 He     0.8749428507     7.2158690498     5.6713546039
 He    -6.4418605919     4.1408526094     1.6456623864
 He     3.3957629570    -0.5431141275    -5.0692251339
 He     0.9794028688     4.1258265442     2.5178666832
 He    -0.2561999101    -0.3844905791     3.6294853880
 He    -0.3517366352     0.3369621194    -7.3453234105
          6
Energy: 0.043720968424245325 Kcal/mole
 He     2.0549286703     0.6100799994    -6.8317695032
 He    -0.5438851087    -5.4089457452    -5.9211064702
 He     2.0903079906    -1.7121813811    -7.4231353992
 He     0.5789541094     1.3787113826     0.1105638787
 He     3.1893611659     3.6454424813     1.9079687407
 He    -3.4112032792     0.2035020614     1.2657249233
          6
Energy: -0.026805514977400205 Kcal/mole
 He     2.6521992845     6.5870078605    -5.3917521280
 He    -1.9908266208     5.3147035903     0.5326518905
 He    -0.6441698252     4.8264665272     4.0872917623
 He     5.6565501443     2.5274490089    -1.1441008346
 He    -0.5325120280     7.0556680622     6.0581551792
 He    -6.3822888773     5.9258687503    -6.0909103322
          6
Energy: -0.009563364357197639 Kcal/mole
 He    -0.7403226661     3.9014208366    -4.6902089035
 He     4.0929756730    -6.3400819497    -4.8273906991
 He    -6.9960509570     5.2676406818    -3.3005787524
 He    -2.6490979293     0.5950868265    -2.1118176517
 He    -5.4732470620     7.2239441913     6.1342344165
 He    -4.7165537589     0.9589756666    -0.5958510288
          6
Energy: -0.02549412335178343 Kcal/mole
 He     2.4396785793    -4.2856440119     0.7700314312
 He    -2.1480257656     0.6469287155     6.9351161462
 He     0.0175247203    -5.4209344165     1.6351176568
 He    -7.3467309641     6.0109515848     5.3611496564
 He    -2.7097556251     6.3615138011     5.3350087547
 He     2.2364470445     0.6794684909     5.8610551056
          6
Energy: -0.2106702868620386 Kcal/mole
 He     0.6070945080    -6.7966444473     5.5752545249
 He     2.4482436918    -4.7937733460     5.4865125884
 He     1.5347330504    -5.2532566238     2.8864869797
 He     2.0606959004    -2.3727035570     3.8987615540
 He    -0.0654050567    -4.0888841924     4.7700380088
 He     3.8039181552    -3.5333960829     2.1250827583
          6
Energy: -0.24593314700127772 Kcal/mole
 He     0.9834027542    -6.8249257777     5.2625908564
 He     2.7513860094    -4.5905442137     5.3051617891
 He     1.3989043332    -5.3196583935     2.8596134942
 He     1.7532589185    -2.5542244737     3.5435020889
 He    -0.0835298502    -4.1675477963     5.0238146824
 He     4.0169098522    -4.1896155098     2.7972466089
