          6
Energy: -0.2457044405007588 Kcal/mole
 He     0.4466819946    -0.4945646360    -4.9329888545
 He    -1.3221808059    -0.1307730644    -7.1456469721
 He     2.5070390005    -2.3211706274    -5.6833811121
 He     0.3015217746    -3.1912862038    -4.0471940017
 He    -0.0812304935    -2.6938317844    -6.8339040914
 He    -2.0570774886    -1.8483697560    -4.9680948630
