          6
Energy: -0.24593314700127772 Kcal/mole
 He     0.9834027542    -6.8249257777     5.2625908564
 He     2.7513860094    -4.5905442137     5.3051617891
 He     1.3989043332    -5.3196583935     2.8596134942
 He     1.7532589185    -2.5542244737     3.5435020889
 He    -0.0835298502    -4.1675477963     5.0238146824
 He     4.0169098522    -4.1896155098     2.7972466089
