          6
Energy: -0.03139008376488357 Kcal/mole
 He     6.2349970434    -0.1422150500    -4.8254550934
 He     5.4199633551    -4.3640295380     2.5282105641
 He     6.7955807518    -2.8576916108    -4.8272258547
 He    -1.4117153874    -3.4208753226     2.8307291096
 He    -3.2684360734     5.7053722752     5.0039907013
 He     4.0975357206     2.0993078859    -3.3510600274
          6
Energy: -0.031409997216447647 Kcal/mole
 He    -5.9626715385    -2.5908078550     6.8774502688
 He    -6.7063642339    -1.5348260385    -2.7108673217
 He     3.3086508507     5.2364520850    -7.3807208876
 He     0.9849185583     6.2926417317     6.4518819538
 He    -4.4097260287    -1.0816544387     4.7955979392
 He     1.8852657229     6.0177791018    -4.4299647405
          6
Energy: -0.015743217530853403 Kcal/mole
 He     5.5221562808    -4.9041792350     2.4640641737
 He     3.9609152658     5.3129798688     7.2002060743
 He    -1.0015981987    -6.4123952716     3.5170906835
 He     7.3852155091    -5.6063371636    -4.0582980277
 He    -5.5071447855    -1.4119627546     2.5474874911
 He     4.5697519743    -7.2246157043     3.3814151172
          6
Energy: -0.0011884218312401137 Kcal/mole
 He    -4.2058615298     5.9088614171    -7.2373812594
 He    -7.1712629487     3.3466260546     5.4338016891
 He    -2.5617682456     0.3755540282    -6.8912523065
 He     2.8498641478     6.1405926781    -2.3240481320
 He     3.6654701989    -0.6480103080    -6.0032102501
 He    -2.6885558747    -6.3986073425     1.6881317407
          6
Energy: -0.0014744464629901101 Kcal/mole
 He    -6.2402672241    -5.5102263994    -0.3114301002
 He     1.9299190611     1.7438534102    -2.0345990897
 He    -0.8374786429     0.7546100294     5.8725330479
 He     6.5124658682     5.5883760524    -1.1259533274
 He    -4.3910957263     0.3131858868    -6.2660868224
 He     1.4166842038    -3.5258670862    -4.6766970548
          6
Energy: -0.02921267180975308 Kcal/mole
 He    -1.4551279621     4.8545054824    -1.5716705471
 He     5.2896022763    -4.6247771862    -6.7921572631
 He     0.7381269509     7.1060676792     5.4667905721
 He    -1.6481991469    -3.1615768487     6.3603664529
 He     5.2351354070    -4.1785919004    -4.0502042644
 He     5.9294628486    -0.7863096829    -6.2866182315
          6
Energy: -0.0025156003224480116 Kcal/mole
 He    -2.1227985283     7.4384872336    -6.3819515859
 He     3.9130324354    -6.2735745331     6.4884702063
 He    -6.0752642843     4.3554046696     3.0785231316
 He    -3.2238722641    -3.3356077723     4.8596681905
 He    -6.2284997975    -1.0811725835    -1.7300233678
 He     0.9350724710     4.0760706435    -5.1626954858
          6
Energy: -0.20270648094495575 Kcal/mole
 He     0.7560138987     1.1530883649     2.7692168530
 He     2.5806778119    -1.5718724796     2.8542756230
 He     0.9912396327     0.0373413991     5.4731224037
 He     0.4302795289     2.7766819766     5.3092619588
 He    -1.6677949114     1.2722350659     4.8074838453
 He    -0.3487159857    -1.4067354895     3.2740959507
          6
Energy: -0.24025533041579583 Kcal/mole
 He    -1.6581229332     0.0367767914     6.3578964255
 He    -3.6691780107     0.5880064967     4.5041348434
 He    -3.4136037265     3.5819777154     5.0716141039
 He    -3.8671298471     1.7627971426     7.0593643719
 He    -1.3167450526     2.0110672721     3.9943605039
 He    -1.1587833320     2.6606414976     6.8853769837
          6
Energy: -0.25401301953589844 Kcal/mole
 He    -1.8015190437    -0.0290329684     6.2300140874
 He    -3.8184013761     0.8053571607     4.3780693870
 He    -3.1838912179     3.5198655381     4.9694808074
 He    -3.8793826898     1.7191225438     7.0662331182
 He    -1.1252703276     1.7470469108     4.1221362988
 He    -1.1741819031     2.7019392356     6.8059885137
