          6
Energy: -0.0031632111633613804 Kcal/mole
 He    -0.7388795664     4.4111452896    -0.0539404730
 He    -2.0973698112    -4.7250583322     2.3263931040
 He     4.3295523556    -0.7241476998     0.5575220771
 He     2.8445983272    -2.3171659938    -4.0847086084
 He    -3.2724252048    -4.1877905297    -4.7455538897
 He    -3.9745422837     0.2274155523     4.1258671943
