          6
Energy: -0.006548296424944606 Kcal/mole
 He    -2.5060274576    -0.2123462866     7.2702635836
 He     5.8805846786     2.6034981225    -0.1866094155
 He     3.1454719092    -0.3360405644     0.6450647420
 He    -3.6884862271     2.9424697123     2.7064996942
 He     5.7634368242    -1.7007046326    -4.2209652000
 He    -3.8130735570    -5.4576849402    -2.0225027762
          6
Energy: -0.01601996722173105 Kcal/mole
 He     2.6701184571     0.9777466191     5.3176276484
 He     3.4598957882     3.2187699278    -6.7834425998
 He    -0.7242573654     2.0787538871    -1.8193808935
 He    -6.7501140553     6.8875491505     5.8142172510
 He    -4.6751047027    -4.7493070259    -1.1604515774
 He     3.0656897718     6.3899270067    -6.6200629194
          6
Energy: -0.02887223170542767 Kcal/mole
 He    -1.0447066403    -1.3034853020    -5.6333460404
 He    -7.3560788214     1.5031968180    -3.2011205145
 He     0.4498368785     6.0374025690     1.9639184537
 He    -3.8538120635    -2.7062898949    -6.0238907484
 He    -0.1721008721     5.8191461126    -1.3949452964
 He    -5.5399103523     2.9559772712     3.0479693742
          6
Energy: -0.02141271756249663 Kcal/mole
 He    -3.4063168732     0.8023132583    -7.1452475375
 He    -0.2779101434    -3.4614016340    -0.0516936961
 He    -2.5956712787     4.0547066631     2.9597871030
 He     3.1617645248     3.9080411950     0.6448602828
 He     2.4502346501     2.7599476075     3.8640372419
 He     5.9703366358     5.5074876503     2.5775523174
          6
Energy: -0.0029618147221375135 Kcal/mole
 He    -5.1359709654     3.2433389555     6.8349132740
 He    -0.5514512470     6.1058008507    -7.1866107278
 He     6.0559470595     3.5786200479     4.6372821242
 He    -2.4057670440    -6.3532198479     1.4526623618
 He     6.6681724663     2.1655849617     0.4663159813
 He    -3.1870392808    -1.3791190253    -6.7119496150
          6
Energy: -0.023433718329751833 Kcal/mole
 He     5.8648997890    -7.0068600976     4.7815420885
 He     7.1527634524     1.4868730766    -0.9684664065
 He    -6.1478389319     4.7672764184     3.1688056625
 He    -5.4629652644     2.1207095377     1.8716432017
 He     6.8916992301     0.1192058514    -4.8072633938
 He     1.6912693219    -1.1108331946     4.0279822879
          6
Energy: -0.01377377950804885 Kcal/mole
 He    -5.6920125212     1.8682789735    -4.8923674717
 He    -3.9119215344     5.1797577648    -3.7805567067
 He    -5.1405501122    -0.9119369596    -0.7887950393
 He     7.1606083275     2.1191347302     3.2273293179
 He    -3.5263233906    -1.4688654130     5.4000676368
 He     5.6528404490     4.3250724463     6.0264696960
          6
Energy: -0.07396970746514951 Kcal/mole
 He    -2.9193066819    -0.3670890533    -1.0377138028
 He     4.8134364890     7.0389882866    -1.4080364888
 He    -5.3012874747    -2.4974010727    -2.3109992780
 He    -5.7853523084     5.9995174489    -5.2378126219
 He    -1.8814842402    -0.4349859765    -3.5551908289
 He    -2.3865964612    -2.6517562915    -2.2488942952
          6
Energy: -0.19454531925110571 Kcal/mole
 He    -0.9045922221    -4.3271015422     0.6726152583
 He    -2.3013414479    -1.1755687687     1.3993995101
 He    -3.0541796201    -5.5257113000    -1.2142610449
 He    -3.8764954328    -3.9171715184     1.1788984498
 He    -1.4537402380    -0.1494084578    -1.0873849627
 He    -2.6591869296    -2.7864958021    -1.3782641694
          6
Energy: -0.24587978184195794 Kcal/mole
 He    -1.2655477617    -3.9512734967     0.9471073925
 He    -2.5585479634    -1.4212729540     1.3031958654
 He    -2.8156522819    -5.5323094802    -0.8612526790
 He    -4.1124152083    -3.7818048726     1.0157418563
 He    -0.2165383499    -1.6168604381    -0.3535447695
 He    -2.6774335632    -2.7202085222    -1.2562890695
