          6
Energy: -0.011702806030144154 Kcal/mole
 He     4.9490722025    -3.4794271302    -2.6344347448
 He     4.9570352844    -1.0292299371    -0.2232426564
 He    -6.9183578189    -4.2947840335     4.3042625884
 He    -1.3266243282     6.3804552734    -1.2537079615
 He    -3.7080991495    -5.9010793703    -1.5077460439
 He     5.1505227801     1.5279983087     7.0233389302
          6
Energy: -0.013060161036362147 Kcal/mole
 He    -0.6810284552     3.6256021158     4.4962343462
 He    -5.3014157396     4.6641781827    -1.9479907947
 He     2.2146967148    -6.9375188825    -1.4473183348
 He     2.5325267108    -1.0244791964    -5.6160690519
 He     1.0824573280    -2.8613831164     4.1893342763
 He     1.3525352626     5.5512430835     2.6055038499
          6
Energy: -0.003390534769932246 Kcal/mole
 He     3.7422192856     0.4794363328    -2.7081958833
 He     6.6825247032    -7.3116617284    -5.2681279128
 He    -1.8288176456     7.4645110898    -1.2087700400
 He    -5.8364598466     2.2115926478    -5.7657259621
 He     3.8819869668     1.2812398936     4.2246269314
 He     5.7382965837     1.6200354155    -6.4782447480
          6
Energy: -0.016187714976297368 Kcal/mole
 He    -7.2294563454    -2.9830332401    -6.0138038364
 He    -5.5929385095    -0.2282849345     1.9459978929
 He     1.1113855367    -4.4207505056    -2.2814389637
 He    -3.5635176679    -7.1195310406     7.1838312208
 He     6.0396271188     1.0791456202     6.9980304251
 He    -5.9306194177    -0.4117263269    -4.6526861922
          6
Energy: -0.02037622323100684 Kcal/mole
 He     0.8936360428    -1.1765232963     3.9587402332
 He    -3.8023357618     0.8529595051     2.8095567504
 He    -3.2747593229     0.9338783128    -3.4762969339
 He     0.4381080406     5.1532250643    -6.9167432798
 He     6.4594777078     6.6591844522     6.9719833155
 He    -1.2486466370    -0.6063228006    -4.5042756131
          6
Energy: -0.04171278619797816 Kcal/mole
 He    -0.0873931133     1.4290314887     3.2957862248
 He     1.1661306217     2.3948158098    -4.9930635813
 He    -1.2028075991     4.1230893031    -4.5202398238
 He     2.7516186862    -0.3566379567     3.2914656283
 He     4.9420474767     2.0197378641     5.2177991855
 He     5.1994437301     4.7850194863    -2.9100930853
          6
Energy: -0.0758584081288725 Kcal/mole
 He     4.8318231392    -0.2447063738     3.3927825142
 He     3.5511104030    -2.2113051425     5.3342394600
 He     3.9453268243    -0.4634972907     0.3660796769
 He     5.6665628677    -3.1538728082    -1.7043891657
 He    -5.3583786563     1.1202741421    -3.0742334178
 He     2.9919280095    -3.2672563067     0.6199398989
          6
Energy: -0.19815500136916617 Kcal/mole
 He     1.4881262461    -1.8769710121    -1.4070494755
 He     0.7635783120    -4.0313646273    -3.0084846434
 He     1.0175226746    -0.9006899787    -4.2226542523
 He     4.3621646955    -0.2377973110    -3.8050098841
 He     1.7987801125    -3.9305176305    -5.7797433413
 He     3.2308559081    -2.7973445143    -3.5510891989
          6
Energy: -0.22403981000798115 Kcal/mole
 He     0.6716222293    -0.5636262904    -4.8593622973
 He    -0.4310430625    -0.0247128588    -7.3402950101
 He     2.6714820885    -2.1449665983    -6.3921306979
 He     0.4423113059    -3.1973369705    -4.0499430608
 He    -0.0578850248    -2.7920752128    -6.8368197909
 He    -2.0956659609    -1.8273299175    -4.9735690665
          6
Energy: -0.2457044405007588 Kcal/mole
 He     0.4466819946    -0.4945646360    -4.9329888545
 He    -1.3221808059    -0.1307730644    -7.1456469721
 He     2.5070390005    -2.3211706274    -5.6833811121
 He     0.3015217746    -3.1912862038    -4.0471940017
 He    -0.0812304935    -2.6938317844    -6.8339040914
 He    -2.0570774886    -1.8483697560    -4.9680948630
