          6
Energy: -5.326322728049298 Kcal/mole
 Xe     3.5304465200     0.7234110195     3.9465044965
 Xe     7.6776992375     1.3182649371     2.6032070725
 Xe     0.6129675535     1.9928691709     0.9228783665
 Xe     5.8563833351    -2.7070436531     2.3840332908
 Xe     4.5471682291     0.4896452971    -0.3702949154
 Xe     1.6010115334    -2.2828199651     1.3643956400
