          6
Energy: -0.1265028145666655 Kcal/mole
 Xe     0.3014932548     4.3842084793     4.5871431019
 Xe    -1.5273337890    -2.9469186119    -0.6733016395
 Xe     6.3435201868     2.5132526738    -0.3376955368
 Xe    -6.0858933124     5.2507704281    -4.8111425349
 Xe     6.4403096330    -5.6784381097    -1.9769308938
 Xe     6.5869876650    -4.5348882827     6.1139939475
