          6
Energy: -4.231633472429221 Kcal/mole
 Xe    -1.9632474132     7.7740954862    -7.0206914302
 Xe    -4.6632706126     4.5474236361    -7.3842756731
 Xe    -9.0004501032     4.5691046505    -7.9457686749
 Xe    -2.1460675100     4.2386085217    -4.0390578693
 Xe    -6.4877355114     0.7288547114    -6.0142202438
 Xe    -6.9239890074     4.5634503025    -3.6812672527
          6
Energy: -4.094825979316363 Kcal/mole
 Xe    -6.6963896929     5.7598862354    -2.8202603531
 Xe    -7.0871887043     7.5191421459    -6.7982785171
 Xe    -8.5054327723     3.3908416162    -6.8211685386
 Xe    -4.1924560140     3.3655452895    -8.6547743888
 Xe    -4.5489475337     2.2088432550    -3.6871858638
 Xe    -5.8616113534    -0.4598665999    -7.5172131432
          6
Energy: -4.487087214464851 Kcal/mole
 Xe    -2.8871787288    -2.7583059880    -6.2212061370
 Xe    -5.0277278011     1.1321969203    -6.3555650547
 Xe    -4.1522370605     4.0341735253    -3.3637604692
 Xe    -7.0466354154     1.3480049825    -2.5499865758
 Xe    -2.6302603550    -0.5345197406    -2.6198479866
 Xe    -6.7166344553    -2.3964265210    -4.8617367666
          6
Energy: -4.138028443435337 Kcal/mole
 Xe    -7.5747516961     1.9917283772    -2.4958357325
 Xe    -4.3458635328     0.4963747513     1.5991883484
 Xe    -7.4122311425    -1.9799902547    -0.4816133922
 Xe    -4.0088595868    -1.4470420611    -2.9144279612
 Xe     0.4090802383    -2.1778326335    -0.1923076254
 Xe    -3.8910139475    -3.7652355890     1.4167014851
          6
Energy: -4.42696667479668 Kcal/mole
 Xe    -0.8063137327    -0.0436039207    -0.6139034807
 Xe    -3.5075475681     1.7704177889     2.5063983025
 Xe    -4.8241324185     2.0633036839    -1.8108958328
 Xe    -0.5110083101     4.1584771153    -2.0475980334
 Xe    -5.3581426550    -2.1540000845    -0.5534024511
 Xe    -7.8415575329     0.8080665841     1.8117038951
          6
Energy: -4.795592898031745 Kcal/mole
 Xe     5.3222169099    -0.1527860732    -5.2908805729
 Xe     3.3478844721    -4.0616693258    -4.2479819311
 Xe    -0.0235460137    -1.6412177494    -3.3345046037
 Xe     1.5357022912     0.3564460799    -7.3428218290
 Xe     3.5070429949    -0.9403481241    -1.1948915125
 Xe     1.6848382801     2.6428260570    -3.0998350884
          6
Energy: -4.772591920554658 Kcal/mole
 Xe     3.5615250422    -4.9075326932    -4.5867317832
 Xe     3.6250327710    -7.9975412941    -1.4253221128
 Xe    -3.6939837408    -6.2544665596    -4.5470073030
 Xe     0.5405687704    -7.9935415731    -5.1212285456
 Xe     0.1338022388    -5.1837971163    -1.7427149233
 Xe    -0.0436663879    -3.0432375626    -5.9309598261
          6
Energy: -5.263005092842773 Kcal/mole
 Xe     3.9394305641    -6.9512234066    -4.6768960622
 Xe     3.5896717191    -6.0310850436    -0.3855196455
 Xe    -0.9721363180    -7.3641779363    -0.0947184764
 Xe     2.3447534300    -9.8460967733    -1.5695328959
 Xe     0.5558910912    -4.2700938940    -3.0442013290
 Xe    -0.3470382194    -8.3979915450    -4.6086477638
          6
Energy: -5.345428745705071 Kcal/mole
 Xe     1.4426819007    -6.9126137511    -6.7835409718
 Xe     3.6242139599    -4.8660576344    -3.3305790306
 Xe     0.0054221716    -5.4650850611    -1.0291728802
 Xe     2.0361238848    -8.8764843398    -2.9971799315
 Xe    -0.1216833694    -3.1417057867    -4.7148756565
 Xe    -2.0747809349    -7.0537387731    -4.4305816860
          6
Energy: -5.501877639213865 Kcal/mole
 Xe     1.5829709278    -6.6367699706    -6.8027948590
 Xe     3.6279616435    -4.9106797350    -3.3304384650
 Xe    -0.0413770655    -5.4766932760    -0.9440802670
 Xe     1.7751524783    -8.8740644278    -3.0458218076
 Xe    -0.1950748304    -3.1941390825    -4.6994743155
 Xe    -2.0723485189    -7.1857181489    -4.4237836717
