          6
Energy: -1.1219195061107499 Kcal/mole
 Xe     2.8835230307    -8.6672620009     8.7599898564
 Xe    -4.9238229533    -4.6559361792    -6.4571957935
 Xe    -0.9282367759    -5.1836645447    -7.1397265214
 Xe     1.5248263645     5.1844777379    -8.6702023194
 Xe     2.0667492005    -2.3476683176    -1.6428692184
 Xe     1.4288695335    -6.9703550436    -3.6359354023
          6
Energy: -1.4023450684450653 Kcal/mole
 Xe    -2.7311563297     6.6634034742     0.0546299016
 Xe    -0.4852562939     6.4376783681     5.7948556347
 Xe    -5.4862564821     7.9385731655     4.9190270258
 Xe     9.7442125605    -0.6470750904     6.2487344937
 Xe    -8.8909517291     8.3245418837     8.4646094585
 Xe    -7.0601363543     3.5461854717     3.7697428506
          6
Energy: -0.9646226644992488 Kcal/mole
 Xe     1.3619977774    -0.3633731042     2.9649384884
 Xe     3.8977867012     3.5042513420     9.8142500829
 Xe    -8.0422276254     8.0318724392     1.7752537165
 Xe     5.4994798025    -3.7492285132     4.0972492985
 Xe    -6.1772133297     9.2289743434     6.6736375951
 Xe     3.1033793817    -1.6952284106     8.8568053149
          6
Energy: -2.7595388086669748 Kcal/mole
 Xe    -0.1528927292     2.2248562552     5.0690286069
 Xe     2.2397806262     2.9225624952    -1.0800247964
 Xe     3.7046456965     0.6024815102     4.6849663276
 Xe     4.0514145600     6.0457318974     1.4660449000
 Xe     5.6755140647    -0.4000611366    -0.2034588016
 Xe     7.9645535127     3.6176658442     1.5024106284
          6
Energy: -3.363170648868827 Kcal/mole
 Xe    -0.7804584295     6.2551097258     2.7710179581
 Xe     6.8313845627     8.9593713942     1.2742922603
 Xe     0.2456257527     7.2873347803     7.4037645771
 Xe     2.7073040267     9.3796619943     2.2070904726
 Xe     3.0497921518     5.4207455954     4.2609532532
 Xe     4.3076059544     6.5657746492    -2.0533395761
          6
Energy: -4.702163247262634 Kcal/mole
 Xe    -1.1369605585     4.8426445710     4.2794079394
 Xe    -1.6482690357     5.7805468713     0.1570485625
 Xe     0.8149872812     8.3159480317     2.2547148198
 Xe     2.4592822362     6.4105520392    -1.3126643817
 Xe    -2.4225716836     1.2457083404     1.3274944489
 Xe     1.3872928915     2.9504159644     1.1163492638
          6
Energy: -5.027247081117394 Kcal/mole
 Xe     2.3933394880     4.8864472309     1.4194756071
 Xe     3.6059623188     1.6597823215    -1.6765048714
 Xe     1.7745371924     5.4777242995    -3.6209961343
 Xe     1.3008755741     0.4202616632     1.8941920072
 Xe     0.3988547023     1.4780784588    -4.7715832650
 Xe    -0.7767585200     2.9827040403    -1.0152229213
          6
Energy: -4.844397051045769 Kcal/mole
 Xe     4.6774742049    -0.4537218764     1.5529705347
 Xe     4.1107361403    -2.3014538269    -2.8857395369
 Xe     1.4194144597     2.0755193485     3.0325452226
 Xe     2.4419479574    -4.4775107292     0.5087217945
 Xe     0.7283429796    -0.0919189811    -0.8647334898
 Xe     0.7998319543    -2.0781308842     3.7216327660
          6
Energy: -5.212139951554034 Kcal/mole
 Xe     3.6411413268     0.8705771957     4.1121767683
 Xe     7.6244719015     1.5693001642     2.5134404332
 Xe     0.5389705485     2.0938484825     1.0589457540
 Xe     5.8535311684    -2.6460135767     2.6700175230
 Xe     4.5471682291     0.4896452971    -0.3702949154
 Xe     1.5936723133    -2.2778060043     1.3705470721
          6
Energy: -5.326322728049298 Kcal/mole
 Xe     3.5304465200     0.7234110195     3.9465044965
 Xe     7.6776992375     1.3182649371     2.6032070725
 Xe     0.6129675535     1.9928691709     0.9228783665
 Xe     5.8563833351    -2.7070436531     2.3840332908
 Xe     4.5471682291     0.4896452971    -0.3702949154
 Xe     1.6010115334    -2.2828199651     1.3643956400
