          3
Energy: -0.2671238332707717 Kcal/mole
 Kr    -4.9614258857    -3.0714625362     0.6484125835
 Kr    -2.0856339381    -3.1900959958     4.4453753166
 Kr    -0.6517484168    -7.1645238835    -1.2449656957
          3
Energy: -0.09733740197323458 Kcal/mole
 Kr    -1.8154787710     7.0329271354     3.5747657851
 Kr     1.3179584027    -0.8009123926     3.4971334590
 Kr     2.6431077219     6.2954279761     7.0345553249
          3
Energy: -0.012567993634799109 Kcal/mole
 Kr     1.2445125614     5.2750251296    -6.1640050054
 Kr     5.0955165610    -1.8945017893    -5.9128875787
 Kr    -5.6684023050    -3.9258429414    -7.2800475038
          3
Energy: -0.31605448715524637 Kcal/mole
 Kr     1.1570473460     3.3783691301     6.6370229433
 Kr     0.4850367934    -3.8225644991     0.0195284405
 Kr     4.2767302045     3.6467184453     3.8471681529
          3
Energy: -0.46715342418117956 Kcal/mole
 Kr     1.1800241431     1.6828956370    -2.7474367072
 Kr    -3.2324837785     3.9785428328    -5.7717628039
 Kr    -3.3281051530     1.5725750160    -2.9448831204
          3
Energy: -0.6937388647839338 Kcal/mole
 Kr     6.6504461254    -1.9619137281     2.0741703582
 Kr     3.2852008728    -3.0035838673     4.8359376726
 Kr     4.5179328565     1.4429307839     2.3188771558
          3
Energy: -0.9443936804787889 Kcal/mole
 Kr    -1.9607731244     0.8704655279    -0.8922718468
 Kr    -2.4011024189    -2.4549882639    -3.0333090654
 Kr    -5.6321282017    -0.0328377423    -2.3846988976
          3
Energy: -0.9041316930913951 Kcal/mole
 Kr     4.1183073975     3.0816943626     1.6463834460
 Kr     1.7259078152     1.1543082840    -0.9294663694
 Kr     1.2946015459     0.7139780765     3.4229559063
          3
Energy: -0.9186819129902889 Kcal/mole
 Kr     0.0697534845     4.6211310157     0.9735192224
 Kr    -2.3999632514     6.3130410866     3.7964983210
 Kr     1.1720455892     4.4067507537     4.7064683842
          3
Energy: -0.950992397526454 Kcal/mole
 Kr     0.2808510221     4.6299994105     0.9827093050
 Kr    -2.1487702637     6.5137432088     3.6418935086
 Kr     1.2133164173     4.6259839076     4.9424473467
