          3
Energy: -0.0038505999283999903 Kcal/mole
 Kr     3.8802729558    -0.0998421585    -2.9193492392
 Kr    -6.3360109320    -5.6271693284    -6.9220515213
 Kr    -2.1968641585    -5.0809536037     4.2185858481
          3
Energy: -0.0022385315652342567 Kcal/mole
 Kr    -6.7436636207    -6.0900949325     7.0165769518
 Kr     4.5272100855     4.9238109045     2.4462715365
 Kr    -4.1922934129     3.8865982452    -3.7989257330
          3
Energy: -0.001771901778513551 Kcal/mole
 Kr     5.7282690256     6.7829054682     4.8573808684
 Kr    -1.1663616634    -5.8987242689    -6.3310852741
 Kr    -2.3251394613     7.3392735870    -3.3220623519
          3
Energy: -0.022259855755396317 Kcal/mole
 Kr     0.0338747272     5.5023151636     5.9028490347
 Kr     7.2565689897    -4.8465343743     6.7813540081
 Kr     6.5061636728    -5.5057168371     3.2870391756
          3
Energy: -0.04503029134022804 Kcal/mole
 Kr     7.4430218763     7.4143693626    -0.5782061206
 Kr     4.3140095570    -5.1405840694    -2.7141926280
 Kr     5.3991662717    -2.9969176034     3.1429802238
          3
Energy: -0.7898470989401264 Kcal/mole
 Kr     2.0551494888    -0.7201934992    -1.8066408064
 Kr    -2.8129142470    -0.6428460125    -2.0016019639
 Kr    -0.6353023607     1.2168807716     0.6781788030
          3
Energy: -0.8007313931324924 Kcal/mole
 Kr     3.2755028547     0.9126161837    -2.2323430214
 Kr     6.2287734470    -0.5440026314    -4.6820439846
 Kr     6.2310935268    -0.1299177294     0.1387294573
          3
Energy: -0.8133590918368532 Kcal/mole
 Kr     5.8428494730    -2.9798904465    -1.8216352343
 Kr     1.4377381893    -2.3031983051    -0.3976340106
 Kr     4.3292154119     0.8149911434    -0.6561517047
          3
Energy: -0.8141387633618731 Kcal/mole
 Kr     3.2740789835    -2.1305988253     1.4106426910
 Kr     5.4308334699    -4.6612491924     3.5489324873
 Kr     1.2698411016    -4.6838330837     4.7332022202
          3
Energy: -0.9509996841977362 Kcal/mole
 Kr     3.0386906521    -1.8980009414     1.8051907508
 Kr     5.2193803541    -4.7546469062     3.7113776859
 Kr     1.2662822251    -4.3082944601     4.5620316902
