          14
Energy: -54.1203382461444 Kcal/mole
 H     -2.2634323617    -4.0770326736     1.8372131592
 F     -1.7450463938    -3.3251877438     1.9202444169
 H     -3.8009619490    -5.5353366224     2.6253532409
 F     -3.3124392247    -5.3603882889     1.8692926425
 H     -5.4794944783    -1.4317580456     5.0976114228
 F     -6.0885604359    -1.9610430102     5.5332547236
 H     -5.4389730193    -5.1555913337     4.1442481212
 F     -4.6676385905    -5.6388236429     4.0328087463
 H     -1.8864142521    -2.4042980004     3.2842950900
 F     -2.0748916148    -1.9338658076     4.0485325111
 H     -3.4737686159    -1.0593207489     4.1626721258
 F     -4.3052571927    -0.6755069137     4.2096049128
 H     -6.5678691586    -3.3466231412     4.7716869633
 F     -6.7128464527    -4.1194794527     4.2999203833
