          14
Energy: -53.90304020980382 Kcal/mole
 H      2.5452539746     2.2747888745    -3.1354928006
 F      2.4514143221     3.1430194143    -3.4152406324
 H      1.6843611856     0.2231909638    -2.7748487820
 F      2.4951751170     0.6514914310    -2.7695122580
 H      0.0440304542     1.0141083365    -7.3500445426
 F      0.0538656444     0.0971711157    -7.3543343073
 H     -0.0340579646    -0.8203378041    -3.7647647778
 F      0.1775896645    -0.4186979157    -2.9680341576
 H      1.0728704256     3.4714470748    -4.2639419962
 F      0.2990132752     3.5314162706    -4.7522429345
 H      0.1261028284     3.0401399774    -6.3244574439
 F      0.0601787461     2.6618887630    -7.1572053254
 H     -0.1934594355    -0.9278219295    -6.0624247830
 F     -0.2995343279    -1.4126579532    -5.2913403859
