          14
Energy: -54.11742417069668 Kcal/mole
 H     -2.2448737831    -4.0708879112     1.8261131694
 F     -1.7187049245    -3.3241406381     1.9061371811
 H     -3.7901641603    -5.5015435493     2.6386664366
 F     -3.3094265537    -5.3403793956     1.8745941434
 H     -5.5025169477    -1.4319400136     5.0852472245
 F     -6.1201928760    -1.9451323767     5.5279650196
 H     -5.4243201450    -5.1178790557     4.1645213742
 F     -4.6393430088    -5.5796576265     4.0574678961
 H     -1.8781921889    -2.4195222428     3.2787628879
 F     -2.0800293836    -1.9617936489     4.0472908843
 H     -3.4827052110    -1.0932675704     4.1451695948
 F     -4.3149371845    -0.7098743868     4.1810667966
 H     -6.5897253969    -3.3388918096     4.7809017618
 F     -6.7255779361    -4.1173455165     4.3156675048
