          14
Energy: -54.11490603869211 Kcal/mole
 H     -2.4058952075    -4.1345955387     1.8209258422
 F     -1.7631619291    -3.4860312394     1.9054674447
 H     -4.0604433725    -5.4666328591     2.6367568760
 F     -3.6676328846    -5.2149240306     1.8473066962
 H     -5.4243285499    -1.5141968855     5.1367047362
 F     -5.9203095686    -2.0248496413     5.7147407145
 H     -5.5026353694    -5.2503155877     4.3453245569
 F     -4.7506173524    -5.7217456997     4.1148651208
 H     -1.9051397192    -2.3446324303     3.0978184840
 F     -2.0929350433    -1.7526090758     3.7724519134
 H     -3.5927534369    -1.0704407831     3.9157117937
 F     -4.4648050964    -0.7984531211     3.9959465418
 H     -6.5253847043    -3.4334954471     5.1084959223
 F     -6.7473359681    -4.2242438433     4.7006434852
