          14
Energy: -3.1894396185329583 Kcal/mole
 H      2.4957630943    -4.5167277969     2.1264560055
 F      2.8550609633    -4.5167277969     1.2827771321
 H      5.1423465991     2.7551924814     3.1105151970
 F      5.0380689609     3.6662441672     3.1105151970
 H      5.7145514383    -2.1044093385    -2.7328200939
 F      5.1012819320    -2.1044093385    -3.4145748245
 H      2.7443311593     0.5047912137     1.1594472597
 F      3.6401468490     0.7007586857     1.1594472597
 H      0.0752906299     3.1782532812    -1.9374772527
 F     -0.7084877840     2.7022486615    -1.9374772527
 H     -3.0858550713    -4.6915143396    -3.5790699586
 F     -3.9772224116    -4.9068124226    -3.5790699586
 H      0.9802890917     2.0053541239     5.1609707010
 F      1.0211670865     2.0053541239     4.2448822830
