          14
Energy: -54.10705996263843 Kcal/mole
 H     -4.1788466389     1.4695415307     0.0568723082
 F     -4.4637308811     0.9380464057    -0.6339553841
 H     -2.5977615316     2.2006663450     1.4663133675
 F     -3.4509750582     2.4113024413     1.2044964221
 H      0.4962265654     0.6065744676    -2.2035558112
 F      1.1804747494     1.1134646929    -1.8633268852
 H     -0.3883705806     2.1439615387     1.1720506362
 F     -1.0196264979     1.7688447591     1.7213159351
 H     -3.6376962373     1.0585878800    -2.0552948722
 F     -3.0760285847     1.1342103686    -2.7761968678
 H     -1.6714896207     0.2460130131    -2.7857585826
 F     -0.8724924880    -0.1931720161    -2.6877326060
 H      0.8841854673     2.2028241738    -0.6557302645
 F      0.6122600208     2.7547728824     0.0241948597
