          14
Energy: -54.09196124703544 Kcal/mole
 H     -2.7499228603    -4.1741582995     1.1612105516
 F     -2.5865929714    -3.8425645134     0.3220097958
 H     -4.0094055260    -4.5110201231     3.0218647989
 F     -3.1479886941    -4.5793550363     2.7149765761
 H     -5.2828914619    -0.0924080522     2.3443085475
 F     -5.4536623040     0.0116308298     3.2392399586
 H     -5.8080457623    -3.4661391400     3.9578806783
 F     -5.5641181501    -4.2195226840     3.4954938753
 H     -2.5014662977    -2.1998187286     0.1609659305
 F     -2.5589900293    -1.2846474805     0.1674162715
 H     -4.0669055006    -0.6964925981     0.5024920948
 F     -4.9137588622    -0.4626472558     0.7652557528
 H     -5.9247152252    -1.2461490569     4.2039334543
 F     -6.1328143543    -2.0143572987     4.6593891048
