          14
Energy: -54.10505091769596 Kcal/mole
 H     -2.8899133547    -3.6659636796     1.1573357766
 F     -2.2825836248    -2.9855734481     1.2527754544
 H     -4.3930064921    -5.0931110773     2.0222860335
 F     -4.0755998156    -4.8224038836     1.2056713037
 H     -5.8442678466    -1.4155725837     4.8634605279
 F     -6.3660913994    -1.9577092000     5.3875569589
 H     -5.7296711338    -5.0142000689     3.8358171154
 F     -4.9350348322    -5.3749191405     3.5541721267
 H     -2.3521329086    -2.0863515288     2.6440042701
 F     -2.5073587755    -1.6347016946     3.4268237624
 H     -3.9815296194    -0.9233488300     3.6856631552
 F     -4.8420423178    -0.6311337037     3.8082079056
 H     -6.8936418643    -3.3901073764     4.7307685607
 F     -7.0634965604    -4.1795059696     4.2961558097
