          3
Energy: -0.015890047403960404 Kcal/mole
 He     7.4540086014     4.0172767586    -7.2790713217
 He    -6.8134570950    -3.7371187221    -2.3588522293
 He    -4.2554554769    -4.6995709297    -0.7470904856
          3
Energy: -7.11343938963964E-5 Kcal/mole
 He     6.0652362050    -3.3936057039     6.8993091209
 He     5.6497828154     4.3721492175    -6.6488162714
 He     6.7874884150     4.6701475845     3.9413096003
          3
Energy: -0.009156292667469618 Kcal/mole
 He     0.5403459623     1.0677035543    -4.6355408050
 He    -5.3403888003    -0.9517356077     2.3962137327
 He    -3.1424414245    -2.1365444550     4.9706321204
          3
Energy: -1.1903362316372369E-4 Kcal/mole
 He     0.7330426714     0.8196082056    -5.6159220458
 He     5.0895100145    -5.3243485615    -7.1522946168
 He     5.9307971644     0.3434707082     5.1770376407
          3
Energy: -8.523981333227871E-5 Kcal/mole
 He     2.4097567930    -1.7131803516    -4.0948918281
 He    -6.6825841174     1.9625358894     1.9613449546
 He    -6.7917316963     7.1174176683    -4.4822093452
          3
Energy: -0.004896953844641521 Kcal/mole
 He    -1.3739107344    -4.7892713809     4.1800682640
 He    -3.3108516771     6.7672092214     0.8792519198
 He    -3.0222902513     5.4578281729     4.6790533152
          3
Energy: -0.01825383630716936 Kcal/mole
 He     3.8146304728     6.1674851000     2.4373786795
 He    -3.4810865301    -1.2627166616     0.8421766206
 He     3.0242831031     3.5235363512     1.1447562657
          3
Energy: -1.0796963606723089E-4 Kcal/mole
 He    -3.0690225377     5.7661775275    -0.2851044985
 He     6.0584133180     2.9644107008     5.1679389836
 He    -1.3070452948    -0.0272045181     7.4150717800
          3
Energy: -0.035664013267387905 Kcal/mole
 He     2.2611493731     3.1678277693    -4.7501333380
 He     5.6790730401     4.8701194567    -5.8763618159
 He     3.6813421652     6.3345835684    -4.5084648940
          3
Energy: -0.059998523008525435 Kcal/mole
 He     3.0797864586     3.5559826508    -4.3441735392
 He     5.2369067198     4.3882953582    -6.0398605158
 He     3.4882751089     6.3445914082    -4.8880654265
