          3
Energy: -5.254534291220048E-4 Kcal/mole
 He     0.3946073460     3.1020808282    -4.4983046738
 He    -5.5716767339     2.2335858465    -5.5734495527
 He     3.8600124578     5.7675885892     1.9561688172
          3
Energy: -1.6710933039555358E-4 Kcal/mole
 He    -5.9137994994    -1.3129529530    -5.1460823188
 He    -2.9896548308     5.2557350465     6.7133214714
 He    -2.6012048332     5.1065380913    -4.4663634686
          3
Energy: -0.01403815308917091 Kcal/mole
 He     5.8205220676    -5.6453955233     1.5179949602
 He     0.9637387840    -4.7771152231    -3.0913313288
 He    -0.1654191016    -3.5856117631    -0.9954594489
          3
Energy: -6.869529947351728E-6 Kcal/mole
 He    -0.0854179283     7.4274971684     6.0681900562
 He    -7.3216562279    -6.4421975254     1.1548776646
 He     2.3478788040    -6.8764608410    -7.0620018890
          3
Energy: -3.4813836053242684E-4 Kcal/mole
 He     3.4441835406    -0.1692119439    -0.7788191502
 He    -1.7036945179     3.2519547050     0.7486526886
 He    -6.5610813475    -4.6221038388    -6.5122281989
          3
Energy: -2.3984511550272235E-4 Kcal/mole
 He    -0.6726463035    -5.2622232170    -6.4040751910
 He    -4.9608095109    -0.9495334292    -0.3822608166
 He     2.1785713924     0.7893516773    -0.3679684500
          3
Energy: -1.7344026545903097E-4 Kcal/mole
 He    -3.2096523128    -0.7662443744     3.0693699456
 He    -6.1926976448     3.2283369608    -2.7083131873
 He    -0.8079485836     7.3416796258     5.6757102453
          3
Energy: -0.010890454346828846 Kcal/mole
 He    -2.2037406265    -5.1496620781     1.8367044786
 He     4.1436725969    -0.4078234069     2.5949884434
 He     4.0005691256     0.8190523780     5.8352166002
          3
Energy: -0.05339303449603706 Kcal/mole
 He    -0.5153549290     0.8297670412     3.3760092336
 He    -2.9207254619     2.4105553632     3.0818410091
 He     0.1457188922     3.3924685149     2.3628580731
          3
Energy: -0.05999930237475903 Kcal/mole
 He    -0.6798335169     0.7711059575     3.4618440984
 He    -2.7665981533     2.6626149657     2.9212544942
 He    -0.2535448644     2.8693408364     1.5554560600
