          3
Energy: -0.01834777187632295 Kcal/mole
 Ar    -2.6202567631    -2.8284583569    -5.6211122906
 Ar    -6.1199544232    -5.6488787149     2.4704712190
 Ar     1.1832178910    -3.6239498838     0.5084921113
          3
Energy: -0.23590599914432342 Kcal/mole
 Ar     2.3310622326    -3.1375320270     7.2401518539
 Ar    -1.4075301096    -4.3338836575     7.1947842273
 Ar    -5.8081052720     2.2264911628     6.8945847762
          3
Energy: -0.2317973247366862 Kcal/mole
 Ar     2.7872043070    -1.8689089025     5.3968453338
 Ar    -0.8159016044     3.4803087276    -1.5420619048
 Ar     4.6245850941    -5.2279672568     4.5804132142
          3
Energy: -0.0013994103758121676 Kcal/mole
 Ar     0.0727598380     5.0773300391    -5.9697357318
 Ar     7.1538624764    -5.9308985934    -0.1819753102
 Ar    -3.3257089337    -6.9520075406    -2.4117077692
          3
Energy: -0.2050166935403239 Kcal/mole
 Ar     7.2289311632    -2.5796987354    -0.4541865336
 Ar    -4.5235967701    -6.3221858479    -1.5890207339
 Ar    -6.0298298395    -4.3044534623    -4.8334978573
          3
Energy: -0.0038953595298214256 Kcal/mole
 Ar     1.6485463870     6.2114241828    -5.5027146383
 Ar     5.5450029648    -3.7247830229     1.4710333455
 Ar    -2.6479153055    -2.7855865034    -2.5639079523
          3
Energy: -0.3247105061072463 Kcal/mole
 Ar     4.1303736590     1.6482199571    -1.6255049976
 Ar     4.6245163591     2.4783666712    -5.4353558239
 Ar    -0.8833935676     1.3514547984    -1.7577598965
          3
Energy: -0.6220326319928839 Kcal/mole
 Ar    -1.7357109376     0.9567288006     3.8775603319
 Ar    -3.8120915699    -1.6702909328     2.5860854750
 Ar     0.0745874665    -1.3225297436     1.2960154346
          3
Energy: -0.6822278336073445 Kcal/mole
 Ar    -2.4736908314     3.1734063621    -3.9740522514
 Ar    -3.6526069893     1.0415583521    -6.9465264173
 Ar    -3.0231651685    -0.4811277208    -3.2763267915
          3
Energy: -0.7016944342351565 Kcal/mole
 Ar    -2.5020968644     3.1151487879    -3.9269596314
 Ar    -3.3108231120     0.8478366403    -6.8881045016
 Ar    -3.0795541167    -0.6184427092    -3.3739594748
