          8
Energy: -28.92963628768038 Kcal/mole
 H      4.9818949428    -5.5047046304     6.2268595389
 F      5.4102190804    -4.8692022142     6.7304110378
 H      5.1808787700    -6.4147434597     4.2882590730
 F      4.5721486060    -6.5337293442     4.9636692793
 H      6.8986759611    -5.2151743667     3.8896821297
 F      6.4767183269    -5.8560222390     3.3875319933
 H      6.6917050065    -4.2963870061     5.8226331707
 F      7.2928523115    -4.1692439582     5.1419382589
