          8
Energy: -28.858573117598638 Kcal/mole
 H      5.0248027860    -5.4780167536     6.1156895337
 F      5.3686320984    -4.7542611065     6.5616134816
 H      5.1816532944    -6.4766587127     4.2322421665
 F      4.6521455678    -6.6389291928     4.9631175722
 H      6.7757893208    -5.1109655211     3.6776351080
 F      6.4053247460    -5.8320097482     3.2489858091
 H      6.5407856187    -4.1290478108     5.5623246697
 F      7.1079069713    -3.9726239410     4.8589087583
          8
Energy: -28.89423068558446 Kcal/mole
 H      4.8433802838    -5.1120564560     5.7968584367
 F      5.1567361516    -4.3670468350     6.2300532713
 H      5.4622939060    -6.4334729069     4.1812315565
 F      4.7292406639    -6.4348513893     4.7321580888
 H      7.2450190177    -5.2969673068     3.8824925794
 F      6.9228834229    -6.0479546142     3.4663967700
 H      6.6243933577    -3.9981915759     5.5091550230
 F      7.3608519163    -4.0041373831     4.9628195593
          8
Energy: -28.851222886920567 Kcal/mole
 H      4.7448243347    -5.2867024818     5.6649584572
 F      4.8723526740    -4.4326592921     5.9735613620
 H      5.6651909801    -6.6645852561     4.3017803993
 F      4.8671082745    -6.6849361009     4.7529331873
 H      7.2429249842    -5.2324084512     3.9765555882
 F      7.1247373752    -6.0962211673     3.6923931690
 H      6.2558176094    -3.8533569827     5.2507750790
 F      7.0255227045    -3.7669893783     4.7598741690
          8
Energy: -28.87969504635089 Kcal/mole
 H      4.8472283571    -5.3422806482     5.5247736664
 F      4.9473341660    -4.4599898603     5.7537513783
 H      5.8221400535    -6.7333310956     4.2582805959
 F      5.1026868789    -6.8329499670     4.8180593112
 H      7.2724048360    -5.1922754203     3.7653985639
 F      7.1731156723    -6.0661913239     3.5059729379
 H      6.3172160980    -3.8076981486     5.0235801058
 F      7.0619480764    -3.7068444143     4.4981357181
          8
Energy: -28.831540348988 Kcal/mole
 H      4.9694580412    -5.2785231028     5.7893649364
 F      5.3649967549    -4.6606100616     6.3394754702
 H      5.3678033378    -6.1694629368     3.8849604592
 F      4.6603463149    -6.2744826911     4.4588632488
 H      7.0785939555    -4.9734102416     3.6736203079
 F      6.7114616364    -5.6226739318     3.1401791014
 H      6.6864668148    -4.0242992838     5.5360058310
 F      7.3462973699    -3.9045780766     4.9105624114
          8
Energy: -28.86684283108042 Kcal/mole
 H      5.0829033125    -5.4390243052     5.8233839790
 F      5.3784666220    -4.7500384013     6.3514273052
 H      5.4867597592    -6.2407494967     3.9270420774
 F      4.8791392044    -6.5223247983     4.5534617538
 H      7.0572445067    -4.7561590334     3.6941741497
 F      6.7441906019    -5.4324622936     3.1598520063
 H      6.6221414865    -3.9256844765     5.5996755375
 F      7.2564909117    -3.6979559443     4.9778801352
          8
Energy: -28.833152973841635 Kcal/mole
 H      4.9096274079    -5.1170248014     5.6732823053
 F      5.2435481991    -4.5098018035     6.2738371621
 H      5.3989504232    -5.9238529067     3.7865921090
 F      4.7180366663    -6.1237770757     4.3673466029
 H      7.1384485623    -4.6945566236     3.7351144118
 F      6.7575597966    -5.2413154557     3.1051401839
 H      6.6935405953    -3.9230514128     5.6971469165
 F      7.4336858655    -3.8396802565     5.1622420378
          8
Energy: -28.8460888729052 Kcal/mole
 H      5.1183605979    -5.1635261857     5.7246374694
 F      5.4452661554    -4.5631966500     6.3358871770
 H      5.5605142820    -5.8229262064     3.6807428495
 F      4.9085761494    -6.0583693206     4.2811029174
 H      7.2200546268    -4.5318020242     3.6455797352
 F      6.9073914421    -5.1136687202     3.0095279440
 H      6.7698813819    -3.7949406086     5.6179155207
 F      7.4186057357    -3.5702491766     5.0100014863
          8
Energy: -28.831083536880186 Kcal/mole
 H      5.1230852457    -5.2584775313     5.7028640061
 F      5.3328370248    -4.6016823585     6.3074409592
 H      5.8359052406    -5.9032233898     3.7854328422
 F      5.1855012981    -6.2366957320     4.3392016645
 H      7.3612348915    -4.3994376592     3.8461928001
 F      7.1613213029    -5.0534887119     3.2353402994
 H      6.6027786667    -3.7213748291     5.7013207970
 F      7.2686217839    -3.3982128204     5.1599260617
          8
Energy: -28.856169648026793 Kcal/mole
 H      5.0315337992    -5.2106009693     5.7057834240
 F      5.2348664467    -4.5431090147     6.3007618480
 H      5.8485425353    -6.0219982360     3.9134765523
 F      5.1001114687    -6.2738534488     4.3796405688
 H      7.4520301888    -4.5269903739     4.0367752452
 F      7.2473156698    -5.1982691175     3.4465500221
 H      6.6506324111    -3.7625880810     5.8449183214
 F      7.4062130074    -3.5407272744     5.3750622318
          8
Energy: -28.823833195825102 Kcal/mole
 H      4.8831642185    -4.9294481347     5.7461519671
 F      5.0832693174    -4.2556514552     6.3350874339
 H      5.8101455825    -5.8420728317     4.0116034180
 F      5.0174080739    -5.9897547400     4.4482340358
 H      7.4125309233    -4.4518599554     4.0491332662
 F      7.2275168618    -5.1443290245     3.4771670212
 H      6.5625837390    -3.5825484097     5.8164089250
 F      7.3346795264    -3.4055165896     5.3544383310
          8
Energy: -28.80688452053772 Kcal/mole
 H      4.6249771315    -4.4999013424     5.3838668901
 F      4.7796677913    -3.7335754969     5.8631418617
 H      5.6390761132    -5.7803595564     3.9507601190
 F      4.8174937881    -5.8076606284     4.3571418788
 H      7.3329736557    -4.5043867678     3.9848821557
 F      7.1217993011    -5.2291641054     3.4643130412
 H      6.3911905361    -3.2714282269     5.5067909526
 F      7.2258334095    -3.2514164048     5.1275024068
          8
Energy: -28.82512269157766 Kcal/mole
 H      4.7065713064    -4.6682528452     5.4305598688
 F      4.8745784345    -3.9412607590     5.9636125037
 H      5.6257534157    -5.5675461539     3.6414556515
 F      4.9395038226    -5.8115968326     4.1985819947
 H      7.0389237612    -3.9537465348     3.5481885419
 F      6.8946010856    -4.6697938325     2.9938094002
 H      6.2038928402    -3.1400477300     5.3413861254
 F      6.8987152119    -2.8862144725     4.7994640376
          8
Energy: -28.902584808576677 Kcal/mole
 H      4.3408563050    -4.4205041126     4.9603531665
 F      4.4043141381    -3.6321165180     5.4243651321
 H      5.5209615281    -5.5422702815     3.5586060881
 F      4.7178616171    -5.7290715543     3.9598850653
 H      7.0197573626    -4.0480046348     3.5795550171
 F      6.9479746787    -4.8217133356     3.0926144740
 H      5.8914822290    -2.9420090308     5.0275903275
 F      6.7058604648    -2.7989985485     4.6310741350
          8
Energy: -28.866775901815913 Kcal/mole
 H      4.2959451337    -4.3422401538     4.6704741648
 F      4.3331981001    -3.5213960282     5.0775566355
 H      5.5156708139    -5.6417281339     3.4843507196
 F      4.6722390511    -5.7317292913     3.8327924695
 H      7.0240494913    -4.1043316372     3.5302870598
 F      7.0051310473    -4.9356115402     3.1436285342
 H      5.8163129873    -2.8352526135     4.7457880823
 F      6.6567182642    -2.7141918577     4.3994468286
          8
Energy: -28.76537791641786 Kcal/mole
 H      4.2136169367    -4.3376133727     4.6764094378
 F      4.3031890678    -3.5096808491     5.0603281398
 H      5.5037353479    -5.7256906730     3.5530489394
 F      4.6585696776    -5.8103772190     3.8986096124
 H      7.0807663749    -4.2921485231     3.6405208722
 F      6.9906007981    -5.0517771169     3.1348296935
 H      5.9233270931    -3.0430085389     4.8973382029
 F      6.8178516963    -3.0439764045     4.6955616001
          8
Energy: -28.844197791626357 Kcal/mole
 H      4.2632094509    -4.4648547190     4.6115905822
 F      4.2503608785    -3.5958738719     4.9041588675
 H      5.5992100683    -5.8337118853     3.7549863549
 F      4.7340692427    -5.9393086022     4.0400647395
 H      7.1290412132    -4.2746471226     3.6569444453
 F      7.1168858766    -5.1464468642     3.3728556241
 H      5.7497820407    -2.9256510920     4.5847179084
 F      6.6244368352    -2.8333101275     4.3252161999
          8
Energy: -28.787514195174566 Kcal/mole
 H      4.2575695568    -4.4391666072     4.5361297774
 F      4.1484449899    -3.5292901095     4.5028793960
 H      5.8804504766    -5.8617401039     4.3610151566
 F      4.9822814340    -5.9666756415     4.5132317912
 H      7.1888139342    -4.2512783729     3.9029473262
 F      7.3452441072    -5.1529866524     3.9607468040
 H      5.6363342809    -2.8378278688     4.1925953598
 F      6.5360742651    -2.7221087453     4.0585578826
          8
Energy: -28.877920104100752 Kcal/mole
 H      4.1995001465    -4.5278353984     4.0694269453
 F      4.0846117572    -3.6191096251     4.0257562803
 H      5.8536466824    -5.8766658708     3.9156302780
 F      4.9581345035    -6.0447839171     4.0189901339
 H      7.1726221797    -4.1750014506     3.7364235157
 F      7.3248986755    -5.0785078559     3.7735320644
 H      5.5551380158    -2.8249675781     3.7975917908
 F      6.4535179309    -2.6724984246     3.6948509259
          8
Energy: -28.88859501308866 Kcal/mole
 H      4.1815069821    -4.5530703090     3.8807481377
 F      4.0987703606    -3.6676245983     4.1044209899
 H      5.7698788714    -5.9277094134     3.6213753130
 F      4.8645121528    -6.0342904886     3.5221756192
 H      7.1842412594    -4.3580126030     3.9924023474
 F      7.2929722541    -5.2562326017     3.8431796790
 H      5.6190377100    -2.9507166168     4.2070614094
 F      6.5282648261    -2.8320763068     4.2179943039
          8
Energy: -28.875951323007712 Kcal/mole
 H      4.1279280009    -4.4785257965     3.9296834013
 F      4.0833856327    -3.6006105298     4.1907767983
 H      5.7265211441    -5.8653237248     3.4715700527
 F      4.8139422225    -5.9532379076     3.4905386655
 H      7.1626817570    -4.3671408930     3.8472494726
 F      7.2504219461    -5.2387200181     3.5760659775
 H      5.6320070805    -2.9851526863     4.3374055824
 F      6.5460053346    -2.9116467677     4.3470529381
          8
Energy: -28.847643447584034 Kcal/mole
 H      4.1752506760    -4.4652403983     3.9483284221
 F      4.0969836719    -3.5867804437     4.1994685908
 H      5.7421775715    -5.8756899838     3.7504447903
 F      4.8421896639    -5.9585871552     3.5954001993
 H      7.1555933092    -4.3244726163     4.3049180571
 F      7.2511183007    -5.2101751528     4.0874439371
 H      5.5763894566    -2.9186178742     4.4803607159
 F      6.4840842437    -2.8133016789     4.5570918859
          8
Energy: -28.859864452483635 Kcal/mole
 H      4.2360234190    -4.3704707039     4.1247132417
 F      4.1818447278    -3.4896382972     4.3738877606
 H      5.7439031849    -5.8164435958     3.6236008522
 F      4.8302507689    -5.8579438512     3.6899784958
 H      7.3087766235    -4.3723503584     3.8372245398
 F      7.3224902649    -5.2668562970     3.6358292519
 H      5.7809949910    -2.8968524725     4.3433418281
 F      6.6920193359    -2.8385839024     4.2565753786
          8
Energy: -28.845522906489037 Kcal/mole
 H      4.3214849160    -4.4742235661     4.4909729552
 F      4.1960707937    -3.5754862194     4.6230012845
 H      5.8316905352    -5.9019413924     3.9907026487
 F      4.9316632659    -5.9611717217     4.1560256133
 H      7.2761233954    -4.3148129309     3.9206943682
 F      7.3582323508    -5.2205623174     3.8033693143
 H      5.7139969863    -2.8752356980     4.3886620513
 F      6.6034235170    -2.7867523311     4.1837714947
          8
Energy: -28.915067268776426 Kcal/mole
 H      4.2531919535    -4.3629663426     4.3908416046
 F      4.1907390687    -3.4630419478     4.5555374481
 H      5.7532326691    -5.8203941973     3.9702198916
 F      4.8425042173    -5.8866611485     4.0543113787
 H      7.2489548207    -4.2927636184     4.1179903260
 F      7.3029695979    -5.1894565138     3.9338348069
 H      5.7565908749    -2.8252335138     4.5620372227
 F      6.6709270728    -2.7737178802     4.5148730767
          8
Energy: -28.857441721832487 Kcal/mole
 H      4.3119512516    -4.3624587008     4.3224269487
 F      4.2486512259    -3.5348958625     4.7123267503
 H      5.8112981274    -5.6396576335     3.4538874096
 F      4.9019864819    -5.7323172955     3.5277488898
 H      7.2704466112    -4.1739428985     3.8879268784
 F      7.3489075550    -5.0307937379     3.5708472048
 H      5.7646128103    -2.8355453332     4.5776866714
 F      6.6613363953    -2.7264494405     4.4199720611
          8
Energy: -28.902036137292413 Kcal/mole
 H      4.3893403405    -4.4250058283     4.3671943711
 F      4.3263553381    -3.5493692785     4.6321142119
 H      5.9480614838    -5.7818436079     3.7517490237
 F      5.0417083054    -5.8720032477     3.8579759290
 H      7.4066955431    -4.2438159254     3.9505494728
 F      7.4817413727    -5.1165751218     3.6793511903
 H      5.8790692641    -2.8941294378     4.6100890018
 F      6.7839499125    -2.7971659925     4.4974919218
          8
Energy: -28.87109527917815 Kcal/mole
 H      4.2621721016    -4.3478710907     4.3289853548
 F      4.2374144332    -3.4851289848     4.6387467414
 H      5.7488117882    -5.7190129950     3.6562439602
 F      4.8386009385    -5.8125297958     3.7167403828
 H      7.2799205122    -4.3243976524     4.1334938938
 F      7.3128131302    -5.1396607832     3.7149809273
 H      5.8207811395    -2.9763878760     4.9183042065
 F      6.7374740502    -2.9610239945     4.9363889699
          8
Energy: -28.873695263410696 Kcal/mole
 H      4.2724032676    -4.2432151079     4.2623560270
 F      4.3057872319    -3.5164290217     4.8205284877
 H      5.6380465440    -5.4747686301     3.1716469488
 F      4.7238755981    -5.4959117506     3.2404470231
 H      7.2615931077    -4.2839900741     3.9113883455
 F      7.2359395909    -5.0370331684     3.3887441116
 H      5.8758237762    -3.0350678019     4.9644742888
 F      6.7862267802    -3.0047568775     4.8589441123
          8
Energy: -28.878078090510627 Kcal/mole
 H      4.3757372312    -4.3860496016     4.4340910367
 F      4.3505316165    -3.6089694051     4.9203009144
 H      5.7352964129    -5.5568513474     3.3034880872
 F      4.8467694944    -5.6712914810     3.4992235487
 H      7.2474015440    -4.0827704831     3.6920202490
 F      7.2505463227    -4.8655359208     3.2143620241
 H      5.8955052232    -2.9601458405     4.9094958731
 F      6.7810997852    -2.8313770073     4.7094212385
          8
Energy: -28.874304083493286 Kcal/mole
 H      4.4023816681    -4.5297118157     4.6280536082
 F      4.4094067674    -3.7966116151     5.1788745808
 H      5.7186307631    -5.5532155829     3.3066263394
 F      4.8607263211    -5.7378415077     3.5727132356
 H      7.2102339816    -4.0570187654     3.6365851818
 F      7.1998331799    -4.8332053110     3.1484097321
 H      5.9085069665    -3.0039580586     4.9780652943
 F      6.7562560425    -2.8163971771     4.6830544134
          8
Energy: -28.86254891488491 Kcal/mole
 H      4.4231755150    -4.2978809993     4.4969901313
 F      4.4379984029    -3.5286595575     4.9959567189
 H      5.8120877433    -5.5027836760     3.4134921982
 F      4.9136581635    -5.5999406989     3.5692927211
 H      7.3516558853    -4.1047075514     3.8035844596
 F      7.3406835732    -4.8881976795     3.3272318302
 H      6.0262962173    -2.9135722243     4.9700500788
 F      6.9167003209    -2.8321692611     4.7664743193
          8
Energy: -28.88570977043679 Kcal/mole
 H      4.4834482888    -4.2965020215     4.4775914423
 F      4.4673294198    -3.5317594898     4.9833562515
 H      5.8607908249    -5.5105223887     3.4083946110
 F      4.9523213438    -5.5618380018     3.5221439395
 H      7.4776763335    -4.1995565752     3.9812832535
 F      7.4627684994    -4.9822231701     3.5036853496
 H      6.0540896269    -2.9506809263     5.0012315408
 F      6.9612968773    -2.8893059003     4.8825002852
          8
Energy: -28.902335268726375 Kcal/mole
 H      4.4325357154    -4.3521253764     4.4457792194
 F      4.3835629576    -3.5898866200     4.9532067978
 H      5.8968808132    -5.5935093084     3.4861982904
 F      4.9850746931    -5.6641102388     3.5533854026
 H      7.4411475319    -4.2647179452     4.2140411636
 F      7.4689307301    -5.0195170842     3.6940456313
 H      5.9390692675    -3.0404117136     5.1560571863
 F      6.8532144321    -2.9774405576     5.1205290066
          8
Energy: -28.894415996297738 Kcal/mole
 H      4.4439285043    -4.6696366647     4.6380012027
 F      4.4498179359    -4.0544197789     5.3179736271
 H      5.8936005209    -5.5409452096     3.2957345481
 F      4.9848546036    -5.6442959696     3.3619801381
 H      7.4212161147    -4.3174511457     4.1907358070
 F      7.4504167518    -4.9704804033     3.5476268649
 H      5.9835065590    -3.4397860266     5.4840821278
 F      6.8813907078    -3.2857121758     5.3794193174
          8
Energy: -28.85465249819768 Kcal/mole
 H      4.5294592268    -4.8940813570     4.8286195278
 F      4.5233667555    -4.4058538967     5.6048191341
 H      5.8643041589    -5.5504047444     3.3421749836
 F      4.9607044319    -5.6729395741     3.4390344122
 H      7.4230614392    -4.5471277051     4.4176636889
 F      7.4234883321    -5.0578905916     3.6560797529
 H      6.1057190247    -3.8913446837     5.8889213331
 F      7.0023769435    -3.7320420813     5.7816075053
          8
Energy: -28.912252045748005 Kcal/mole
 H      4.5629938224    -5.1595347324     4.9439507244
 F      4.5806337118    -4.7114064852     5.7438000279
 H      5.8616518734    -5.4668077392     3.2714749519
 F      5.0121136260    -5.7669069685     3.4421038441
 H      7.3721189370    -4.2990434548     4.2269939125
 F      7.3705031298    -4.7533749372     3.4304581046
 H      6.0534059585    -3.9355236658     5.8693853138
 F      6.9028798291    -3.6443669842     5.6836141375
          8
Energy: -28.896653564149602 Kcal/mole
 H      4.7298711689    -5.3158169088     5.0470829406
 F      4.7645014317    -4.9060703651     5.8667154893
 H      5.9264229489    -5.4908564693     3.2952898271
 F      5.1212710768    -5.8650680112     3.5246044249
 H      7.3617524699    -4.1427013946     4.1882104621
 F      7.3646137797    -4.5838557235     3.3843051996
 H      6.1712887037    -3.9834951485     5.9391323106
 F      6.9651979421    -3.5880052404     5.7063559078
          8
Energy: -28.90725970108872 Kcal/mole
 H      4.7821945819    -5.2986328550     5.0739877577
 F      4.8117208533    -4.9134013135     5.9056210055
 H      6.0415421780    -5.3785495660     3.3315112173
 F      5.2207162469    -5.7426796705     3.5173688453
 H      7.4793294161    -4.1122216049     4.2567218480
 F      7.4944274299    -4.5482485958     3.4501603108
 H      6.1918498673    -3.9619086511     5.9760622659
 F      6.9798295408    -3.5495015467     5.7526849743
          8
Energy: -28.902350928067392 Kcal/mole
 H      4.7950419708    -5.2982279573     5.0467497457
 F      4.7839067074    -4.9075456872     5.8762871889
 H      6.0431154881    -5.3198977647     3.2726567413
 F      5.2639709327    -5.7460350863     3.5011950201
 H      7.3584659620    -3.9072716701     4.1384165442
 F      7.3809331494    -4.3309799532     3.3254863404
 H      6.1240033887    -3.8907985287     5.9084581844
 F      6.8885779910    -3.4438487887     5.6706544684
          8
Energy: -28.89481773716966 Kcal/mole
 H      4.9508028112    -5.5150886452     5.0929339579
 F      4.9786208482    -5.1260748585     5.9228637323
 H      6.1112412640    -5.3726051670     3.2778444794
 F      5.3950873321    -5.8987896611     3.5039913873
 H      7.3898080764    -3.9111420798     4.1566996820
 F      7.3870258021    -4.3061807325     3.3291577061
 H      6.2415148785    -4.0241738103     5.9647219283
 F      6.9618694436    -3.5100369459     5.7246353082
          8
Energy: -28.902584012614938 Kcal/mole
 H      5.0350345800    -5.6146461882     5.0733874144
 F      5.0138919886    -5.2077247226     5.8948841652
 H      6.0796698110    -5.3352329536     3.2180142570
 F      5.4563304578    -5.9550234983     3.4791592961
 H      7.1413800459    -3.6788933586     4.0798353454
 F      7.1526759021    -4.0396503134     3.2368550234
 H      6.1686674288    -3.9741030202     5.9430587785
 F      6.8334072435    -3.3947239361     5.6914045400
          8
Energy: -28.898160443700334 Kcal/mole
 H      5.1539905055    -5.6756673572     5.1401234343
 F      5.1388287694    -5.2869583195     5.9705235823
 H      6.1424456442    -5.4252536551     3.2611160346
 F      5.5167882839    -6.0359452923     3.5376980150
 H      7.1622759637    -3.6951489152     4.0516502554
 F      7.2147667393    -4.1381650368     3.2504820867
 H      6.0891943271    -3.9200732427     5.9025008058
 F      6.6793559263    -3.2806332655     5.6131657021
          8
Energy: -28.89715874835599 Kcal/mole
 H      4.8850167186    -5.5352269694     5.0904117564
 F      4.8183328113    -5.0692052032     5.8773462962
 H      6.0293342406    -5.4037958856     3.2777229115
 F      5.3757212078    -5.9914678359     3.5391051646
 H      7.0589361077    -3.6930100527     4.0704347253
 F      7.1460444145    -4.1449763983     3.2773221448
 H      5.9313743606    -3.7791939490     5.8622579724
 F      6.5864763804    -3.2019855539     5.5819709549
          8
Energy: -28.90975396718676 Kcal/mole
 H      4.9267919919    -5.4785099877     5.0656299178
 F      4.9077927409    -5.0911312700     5.8965726099
 H      5.9412479994    -5.1934656770     3.2242948002
 F      5.3145715754    -5.8100715053     3.4849917739
 H      7.0155300196    -3.5463485013     4.0245954117
 F      7.0377997220    -3.9287179320     3.1914167521
 H      5.9978935893    -3.8350716658     5.8899827278
 F      6.6235666844    -3.2184512775     5.6269209958
          8
Energy: -28.90166242036051 Kcal/mole
 H      4.7803108088    -5.3705141927     5.0140010205
 F      4.7564818278    -5.0048752123     5.8546134852
 H      5.8787793977    -5.1593222856     3.1735405101
 F      5.1978112826    -5.7182843616     3.4279669702
 H      7.0435487883    -3.6164892692     4.0400799491
 F      7.0464341135    -3.9783495617     3.1975018794
 H      5.9819793108    -3.8791144906     5.8832975453
 F      6.6649610179    -3.3204791835     5.6335945587
          8
Energy: -28.913642327655936 Kcal/mole
 H      4.7881780522    -5.3971384913     4.9998012078
 F      4.7738208340    -5.0239867655     5.8373217507
 H      5.8841323293    -5.2015929631     3.1927240310
 F      5.1998264393    -5.7638870212     3.4302947388
 H      7.0026259564    -3.5791876153     4.0336421784
 F      7.0316875021    -3.9851460398     3.2119109668
 H      5.9200623065    -3.7971703889     5.8831458791
 F      6.5863744849    -3.2228179363     5.6242321075
          8
Energy: -28.91041132109703 Kcal/mole
 H      4.6859973047    -5.3120754984     4.9778315645
 F      4.6903709568    -4.9297337350     5.8113090070
 H      5.8070370298    -5.1257713659     3.1466319111
 F      5.1157443616    -5.6799916173     3.3829439081
 H      6.9725823095    -3.5642020063     4.0574327456
 F      6.9920517585    -3.9423031683     3.2222384856
 H      5.8696501921    -3.7604491515     5.8671231235
 F      6.5600922989    -3.2041324387     5.6332633103
          8
Energy: -28.894964130834865 Kcal/mole
 H      4.6093981086    -5.1364157187     4.9373611129
 F      4.6206301144    -4.7678488992     5.7769570523
 H      5.7199592385    -5.0051240460     3.1055187674
 F      5.0096446627    -5.5250749089     3.3624103858
 H      6.9365065639    -3.5016025572     3.9847630679
 F      6.9636932133    -3.8897073253     3.1543869030
 H      5.8803370144    -3.6502100886     5.8223821053
 F      6.5821210731    -3.1223673658     5.5582416223
          8
Energy: -28.89529319777705 Kcal/mole
 H      4.7020978738    -5.1791710114     4.9819784585
 F      4.6981105775    -4.8098888428     5.8213256938
 H      5.7148690798    -5.0102667591     3.1347384764
 F      5.0170675844    -5.5401312237     3.4053040361
 H      6.9411355778    -3.4715042729     3.9877901568
 F      6.9431566491    -3.8582243772     3.1563261010
 H      5.8965177962    -3.6334926751     5.8202973030
 F      6.5824998866    -3.0851007651     5.5565097281
          8
Energy: -28.911583109156368 Kcal/mole
 H      4.6933445764    -5.2041193257     5.0024471137
 F      4.7032224799    -4.8198094507     5.8349717962
 H      5.7538543266    -5.0706215222     3.1546837198
 F      5.0439928925    -5.5853100962     3.4231635441
 H      6.9427239325    -3.4962598273     3.9867493137
 F      6.9572081616    -3.8977271363     3.1624294686
 H      5.8912534809    -3.6455686932     5.8391218613
 F      6.5725114895    -3.0938310321     5.5701198557
          8
Energy: -28.913432931737475 Kcal/mole
 H      4.7506479223    -5.2603143495     5.0333662676
 F      4.7735578486    -4.8814445950     5.8681248221
 H      5.7389098943    -5.0282433963     3.1628920266
 F      5.0802760638    -5.6044818684     3.4368257788
 H      6.9269314261    -3.4194410560     3.9500625412
 F      6.8892720438    -3.8090767241     3.1208129907
 H      5.9188876347    -3.6772263609     5.8407135324
 F      6.5710455615    -3.0921516660     5.5700354212
          8
Energy: -28.899766153330546 Kcal/mole
 H      4.7682155857    -5.3008339016     5.0490331957
 F      4.7917751277    -4.9549390926     5.8979682515
 H      5.7412221844    -4.9689631527     3.1629501074
 F      5.1094420329    -5.5788276128     3.4271624851
 H      6.9393438102    -3.4263292367     3.9853664170
 F      6.8935300519    -3.7564606762     3.1310811414
 H      5.9980437148    -3.7820749041     5.9015242248
 F      6.6506539059    -3.2035101756     5.6182367499
          8
Energy: -28.8850923435144 Kcal/mole
 H      4.7749334029    -5.2799910738     5.0094839843
 F      4.8188400525    -4.9507334097     5.8642065105
 H      5.7450347432    -4.9720600338     3.1377480898
 F      5.0946345396    -5.5571463707     3.4125981463
 H      6.9373359510    -3.4396452502     3.9888676654
 F      6.8848731268    -3.7390133058     3.1236998092
 H      6.0299433944    -3.8187015884     5.8869209076
 F      6.7139153142    -3.2623233941     5.6348996432
          8
Energy: -28.92115498907438 Kcal/mole
 H      4.7332445273    -5.2630943801     5.0278294117
 F      4.7666403371    -4.9480827724     5.8883765672
 H      5.7464000232    -4.9974523480     3.1565323739
 F      5.0429418943    -5.5279393925     3.4107353566
 H      7.0550001336    -3.5674898995     4.0522166889
 F      7.0101145428    -3.8930899383     3.1961449054
 H      6.0202391489    -3.8469345364     5.9241907219
 F      6.7313258134    -3.3219062769     5.6800799224
          8
Energy: -28.9038717144052 Kcal/mole
 H      4.7455859193    -5.2812823000     5.0506565676
 F      4.7676117790    -4.9512287121     5.9059158795
 H      5.7525731536    -5.0191209089     3.1774342623
 F      5.0484035766    -5.5512563043     3.4261632870
 H      7.0283890671    -3.5752564582     4.0669139081
 F      6.9859792247    -3.9145195736     3.2160373343
 H      6.0209278814    -3.8302482866     5.9347149741
 F      6.7155529851    -3.2912830928     5.6741358401
          8
Energy: -28.90957169721233 Kcal/mole
 H      4.6951084094    -5.2820398842     5.0563815404
 F      4.7111497578    -4.9119644647     5.8952354366
 H      5.7248272114    -5.0549401943     3.1734091572
 F      5.0340906463    -5.5990483680     3.4336365442
 H      6.9763956847    -3.5537011012     4.0469816259
 F      6.9546103741    -3.9198848066     3.2065508469
 H      5.9176441958    -3.7662092825     5.9131346332
 F      6.6080263640    -3.2148288756     5.6676939914
          8
Energy: -28.91247636996394 Kcal/mole
 H      4.6694467695    -5.2834417105     5.0558547325
 F      4.7205732022    -4.9314598687     5.9010670555
 H      5.7043384692    -5.0736830946     3.1845751758
 F      5.0130399965    -5.6160755934     3.4468837705
 H      6.9613811672    -3.5807673054     4.0373271657
 F      6.9240571087    -3.9228795511     3.1873535626
 H      5.9398096150    -3.8091673319     5.8984714123
 F      6.6327934150    -3.2684475004     5.6371583496
          8
Energy: -28.916608109500714 Kcal/mole
 H      4.6869176611    -5.3097224458     5.0595806258
 F      4.6980114667    -4.9316953924     5.8949616612
 H      5.7128715905    -5.0881707790     3.1635429372
 F      5.0356850856    -5.6385794393     3.4452480033
 H      6.9300990710    -3.5599083839     4.0293904343
 F      6.9257165516    -3.9239860687     3.1877745879
 H      5.9045867815    -3.7732842370     5.8955752744
 F      6.5889873910    -3.2224946590     5.6326767266
          8
Energy: -28.913254846096805 Kcal/mole
 H      4.6701808166    -5.2963846081     5.0547665233
 F      4.6896105681    -4.9372520867     5.8982920515
 H      5.6768689177    -5.0594943400     3.1895985633
 F      5.0046892351    -5.6274680118     3.4474151305
 H      6.9330421362    -3.5401519041     4.0203516151
 F      6.8833987789    -3.9061904404     3.1810421805
 H      5.9051975396    -3.7740079753     5.8956471682
 F      6.5889549917    -3.2224562664     5.6326729128
          8
Energy: -28.900995785361886 Kcal/mole
 H      4.6760979255    -5.2973566504     5.0548861171
 F      4.6725485285    -4.9299443032     5.8950554863
 H      5.7247313152    -5.1068116194     3.2044847430
 F      5.0385815144    -5.6548882713     3.4684912476
 H      6.9014071166    -3.5360395634     4.0197906681
 F      6.8850769436    -3.9064085905     3.1810719374
 H      5.8311476197    -3.7337437363     5.8685612019
 F      6.5177563378    -3.1823579499     5.6127660052
          8
Energy: -28.918184179945314 Kcal/mole
 H      4.6971759552    -5.3370145236     5.0687029369
 F      4.7034120089    -4.9597660741     5.9044862336
 H      5.7073326421    -5.0908618389     3.1937196845
 F      5.0395044738    -5.6557343703     3.4690623091
 H      6.8927737086    -3.5324075439     4.0166866861
 F      6.8862996839    -3.8963011843     3.1750047358
 H      5.8722669710    -3.7578079444     5.9011512035
 F      6.5466045833    -3.2028395197     5.6215660963
          8
Energy: -28.922532935459316 Kcal/mole
 H      4.6875391415    -5.3278660595     5.0661764104
 F      4.7095213824    -4.9579125660     5.9049494391
 H      5.7043482058    -5.0873990892     3.1936250001
 F      5.0396627912    -5.6559180612     3.4690673319
 H      6.9057142618    -3.5259362769     4.0189734310
 F      6.8753638200    -3.8946565268     3.1799184697
 H      5.8888768338    -3.7604747995     5.9041649000
 F      6.5573123128    -3.1945425944     5.6324964445
          8
Energy: -28.924553492461115 Kcal/mole
 H      4.6950763185    -5.3455787129     5.0761261794
 F      4.7095431075    -4.9733232603     5.9140435918
 H      5.7056040057    -5.0870465108     3.1974138647
 F      5.0395961739    -5.6559367646     3.4688663414
 H      6.8912305729    -3.5183655540     4.0159972408
 F      6.8761321462    -3.8950581362     3.1800763498
 H      5.8579875088    -3.7597627758     5.8872159238
 F      6.5220577321    -3.1884995922     5.6159999333
          8
Energy: -28.92357035290607 Kcal/mole
 H      4.6769518200    -5.3271082010     5.0805475440
 F      4.7000246028    -4.9573332833     5.9193700264
 H      5.6946388367    -5.0812890089     3.2023054025
 F      5.0286818086    -5.6488526222     3.4766442105
 H      6.8793361175    -3.5152470223     4.0147104873
 F      6.8767631196    -3.8952235671     3.1801446091
 H      5.8666969236    -3.7596338130     5.8950840801
 F      6.5296011011    -3.1875624256     5.6227214923
          8
Energy: -28.92460694262533 Kcal/mole
 H      4.6826271166    -5.3277255700     5.0806840592
 F      4.6997235414    -4.9573005333     5.9193627846
 H      5.7013543737    -5.0886208236     3.2036320959
 F      5.0283255649    -5.6484636863     3.4765738325
 H      6.8891351321    -3.5164764103     4.0151783444
 F      6.8762433045    -3.8951583509     3.1801197903
 H      5.8762797747    -3.7644365072     5.8949205725
 F      6.5354155228    -3.1882038779     5.6221843951
          8
Energy: -28.925861439676396 Kcal/mole
 H      4.6916731844    -5.3311198833     5.0851633633
 F      4.7102604893    -4.9666085381     5.9263975705
 H      5.6948422073    -5.0850288469     3.1951861481
 F      5.0286710202    -5.6486542324     3.4770218705
 H      6.8894048587    -3.5245266710     4.0187757407
 F      6.8762289961    -3.8947313031     3.1799289568
 H      5.8721038926    -3.7555553116     5.9032719664
 F      6.5356370437    -3.1886750048     5.6217413730
          8
Energy: -28.92535748603882 Kcal/mole
 H      4.6891003933    -5.3348126971     5.0868347527
 F      4.7103969700    -4.9664126429     5.9263089071
 H      5.6949656738    -5.0823448049     3.2009205493
 F      5.0286644706    -5.6487966146     3.4767176738
 H      6.8878494433    -3.5264886168     4.0196616017
 F      6.8763115073    -3.8946272265     3.1798819639
 H      5.8694414865    -3.7571059059     5.9049744854
 F      6.5291671857    -3.1848680049     5.6253411782
          8
Energy: -28.92693215024528 Kcal/mole
 H      4.6940720743    -5.3332452980     5.0860382211
 F      4.7101332338    -4.9664957898     5.9263511613
 H      5.6982685421    -5.0846327326     3.2042528938
 F      5.0284892611    -5.6486752453     3.4765409006
 H      6.8893874651    -3.5176724487     4.0157157035
 F      6.8762299188    -3.8950949038     3.1800912847
 H      5.8675914940    -3.7555303714     5.9038204121
 F      6.5292653235    -3.1849515833     5.6254023991
          8
Energy: -28.92758038909406 Kcal/mole
 H      4.6917263148    -5.3327672085     5.0858780042
 F      4.7102576709    -4.9665211514     5.9263596604
 H      5.6972577305    -5.0848778076     3.2012780140
 F      5.0285428823    -5.6486622447     3.4766987111
 H      6.8874918470    -3.5180842520     4.0159291490
 F      6.8763304770    -3.8950730586     3.1800799619
 H      5.8698096371    -3.7583153390     5.9033601615
 F      6.5291476561    -3.1848038472     5.6254268144
