          8
Energy: -28.931608282450924 Kcal/mole
 H      5.1518074282    -5.6548850480     5.2720316845
 F      5.0256157683    -5.1205089876     6.0064749368
 H      6.0926533089    -5.5360859641     3.3542418855
 F      5.6270897039    -6.2097893391     3.7668716132
 H      6.7028478430    -3.5287498727     3.7756465063
 F      6.8333460523    -4.0644881344     3.0429502989
 H      5.7573587115    -3.6487477348     5.6912863525
 F      6.2185234247    -2.9724972549     5.2778841321
