          8
Energy: -28.915782784032785 Kcal/mole
 H     -3.2056121073     2.7502731788    -0.7827253220
 F     -3.5299549115     2.2698647697    -1.4932874275
 H     -1.3202269001     3.1760381947     0.1134994946
 F     -2.1677638472     3.4582734824     0.3206549090
 H     -0.3468013467     2.0320987001    -1.4146593745
 F     -0.0299335767     2.4320818316    -0.6527556334
 H     -2.2199340126     1.6789554009    -2.3580185526
 F     -1.3632586308     1.4767562709    -2.6151407062
