          8
Energy: -28.873647358292544 Kcal/mole
 H      4.6407380397    -5.3263924370     5.0859469162
 F      4.5389247953    -4.9209267152     5.9021090396
 H      5.7766869863    -5.1725124216     3.2563592087
 F      5.1508416117    -5.7686294591     3.5627103872
 H      6.7924116015    -3.4958124939     4.0294032060
 F      6.8569182307    -3.8985924204     3.2081260143
 H      5.6479926767    -3.6664824088     5.8733977152
 F      6.3103592365    -3.0967102537     5.5949749579
          8
Energy: -28.89383050825768 Kcal/mole
 H      4.7741185947    -5.4331283197     5.2051946783
 F      4.7215949150    -5.0032333625     6.0134771715
 H      5.7471338338    -5.1830840773     3.3104918841
 F      5.1617908744    -5.8152525913     3.6245389978
 H      6.7076259006    -3.4532727080     4.0460819935
 F      6.7166496903    -3.8349829201     3.2123524899
 H      5.7408391751    -3.6783581942     5.9291171834
 F      6.3511544496    -3.0675385954     5.6204042368
          8
Energy: -28.85987389266961 Kcal/mole
 H      4.7938855776    -5.4473793277     5.2316854148
 F      4.7258436155    -4.9309454328     5.9863743067
 H      5.7599160193    -5.3104203347     3.3114678496
 F      5.2541830134    -5.9804427968     3.6805112440
 H      6.6080083721    -3.4247693666     3.9417623785
 F      6.5822057058    -3.8588763279     3.1344369369
 H      5.7541015737    -3.6283509126     5.8739607378
 F      6.3424152076    -3.0074994962     5.5433256113
          8
Energy: -28.903941159522162 Kcal/mole
 H      4.9163487664    -5.4949628821     5.2480682977
 F      4.8145486691    -5.0126288818     6.0212950770
 H      5.8296226717    -5.2983217027     3.3501971923
 F      5.3552801539    -5.9874447547     3.7256936570
 H      6.5986252837    -3.3781827532     3.9108520252
 F      6.6506904186    -3.8594989592     3.1320626240
 H      5.6949115563    -3.6084179549     5.8470461654
 F      6.2231823535    -2.9524129674     5.4844493906
          8
Energy: -28.86868830391873 Kcal/mole
 H      4.9682621278    -5.5560049239     5.2414169933
 F      4.9317367116    -5.0856359276     6.0277425628
 H      5.8093853108    -5.2200649037     3.2835579842
 F      5.3504045532    -5.9236668124     3.6512127384
 H      6.4365309812    -3.2988968000     3.8456370035
 F      6.5322324995    -3.7505592612     3.0533420833
 H      5.6391370798    -3.6160177860     5.7925343240
 F      6.0671137482    -2.8978012045     5.4158515487
          8
Energy: -28.894990214680462 Kcal/mole
 H      4.9716452671    -5.5170983253     5.2545570082
 F      4.9580210109    -5.0604067497     6.0496269325
 H      5.7746080378    -5.2100204982     3.3018160212
 F      5.2853754458    -5.9032855691     3.6495573222
 H      6.6111625681    -3.3335803403     3.9587779670
 F      6.5942908862    -3.7473012909     3.1405852504
 H      5.8447607709    -3.6346766542     5.8981551689
 F      6.3405414294    -2.9486901217     5.5452911499
          8
Energy: -28.902468837197034 Kcal/mole
 H      5.0365591244    -5.5054122682     5.2574066530
 F      4.9677389385    -5.0480846507     6.0492426413
 H      5.8903210551    -5.1863381561     3.2972441537
 F      5.4093233225    -5.8773890837     3.6605330151
 H      6.6820788517    -3.3042667940     3.9373920584
 F      6.7447647921    -3.7489474896     3.1378806127
 H      5.7710940972    -3.6003425621     5.8741205213
 F      6.2524378613    -2.9093361430     5.5112055045
          8
Energy: -28.880436309328417 Kcal/mole
 H      5.0433729295    -5.5177714141     5.2831740616
 F      5.0562798558    -5.0723168400     6.0846056767
 H      5.8489715694    -5.1876126907     3.2858148275
 F      5.3435858988    -5.8558096383     3.6586246492
 H      6.6772874820    -3.3376803433     3.9082984628
 F      6.7158996799    -3.7580549191     3.0942448318
 H      5.9041371566    -3.6737202214     5.8763310827
 F      6.3866023340    -2.9783666011     5.5233442623
          8
Energy: -28.90725162227622 Kcal/mole
 H      5.0594998550    -5.5973009833     5.2583070320
 F      5.0485715600    -5.1677958661     6.0684273482
 H      5.8102377064    -5.1990790785     3.2796814974
 F      5.3455996790    -5.9111705659     3.6230853662
 H      6.6419131321    -3.3422817971     3.9350338099
 F      6.6222625037    -3.7473109006     3.1125654043
 H      5.9204789715    -3.7180731246     5.9157839030
 F      6.4122056259    -3.0278561069     5.5655063477
          8
Energy: -28.90454975445138 Kcal/mole
 H      5.1709383930    -5.6569475007     5.2966454131
 F      5.0529092477    -5.1886381388     6.0761609437
 H      6.0453897133    -5.3641246891     3.3604426287
 F      5.6231056589    -6.0828182587     3.7426006202
 H      6.6298428913    -3.3810937142     3.9413084832
 F      6.6933068870    -3.8367193718     3.1480452347
 H      5.7976724153    -3.7083973179     5.8909208252
 F      6.2704756532    -3.0122282569     5.5266479374
          8
Energy: -28.902278408374798 Kcal/mole
 H      5.1215134259    -5.6150104188     5.2549003285
 F      5.0509671403    -5.1621618794     6.0491549615
 H      5.9480078470    -5.3090291375     3.3083149552
 F      5.4666338841    -6.0045780103     3.6624051604
 H      6.6495381210    -3.3721849988     3.9458672107
 F      6.7541659694    -3.8478877977     3.1689187822
 H      5.7403788513    -3.6615242731     5.8499199704
 F      6.1597597344    -2.9278835252     5.4938582793
          8
Energy: -28.913876878508916 Kcal/mole
 H      5.1089360042    -5.5921934142     5.2890857261
 F      5.0458946106    -5.1269414349     6.0767756261
 H      5.7997022607    -5.2413751527     3.2933737361
 F      5.4143437903    -5.9722382426     3.6911513036
 H      6.4284289801    -3.2733621020     3.8629905950
 F      6.4808613023    -3.7211168331     3.0644572191
 H      5.7106113316    -3.6069492089     5.8413965568
 F      6.1320424668    -2.8901636052     5.4547401244
          8
Energy: -28.897851823196135 Kcal/mole
 H      4.9948395285    -5.5431710968     5.2683034259
 F      4.8824859984    -5.0701032483     6.0457817183
 H      5.8219578701    -5.2574593139     3.2989779651
 F      5.3855876327    -5.9635093835     3.6888026886
 H      6.4481362456    -3.2922810095     3.8280494365
 F      6.5442699585    -3.7663838882     3.0490284037
 H      5.5951223138    -3.5643827976     5.7899625242
 F      6.0104834253    -2.8603240497     5.3744322287
          8
Energy: -28.86902605158886 Kcal/mole
 H      5.0494609214    -5.5453988031     5.3254765366
 F      5.0198446184    -5.0336673203     6.0858335343
 H      5.7865230057    -5.3023194307     3.3192385046
 F      5.3648660974    -5.9991925912     3.7405011897
 H      6.4322598765    -3.3071347676     3.7649492413
 F      6.5007616602    -3.8002526235     2.9948639955
 H      5.6536048108    -3.5597554864     5.7414122027
 F      6.0570983964    -2.8407806657     5.3399683915
          8
Energy: -28.90991218635199 Kcal/mole
 H      5.2508641116    -5.7110862501     5.2824322849
 F      5.0686909287    -5.2055928767     6.0255193464
 H      6.1099390026    -5.3951111961     3.3290842397
 F      5.7637226731    -6.1393409751     3.7379183005
 H      6.4013730413    -3.3307728745     3.7970285126
 F      6.5660748525    -3.8120762538     3.0340675893
 H      5.5701824831    -3.6450888696     5.7313142437
 F      5.9044546898    -2.8941460364     5.3248219889
          8
Energy: -28.913211878609815 Kcal/mole
 H      5.1976596537    -5.6910898691     5.2249182189
 F      5.0552722525    -5.2248319184     6.0015895467
 H      6.0462715889    -5.3458973650     3.2833631027
 F      5.6672329169    -6.0834452294     3.6748242540
 H      6.4354930954    -3.3148776406     3.8318757051
 F      6.6133489193    -3.7697050141     3.0557388833
 H      5.5823244922    -3.6606038331     5.7571467364
 F      5.9308484706    -2.9070215471     5.3678733431
          8
Energy: -28.919281548350966 Kcal/mole
 H      5.1684727719    -5.7153757684     5.1862580385
 F      5.0484494775    -5.2500625797     5.9672619088
 H      5.9841158121    -5.3636663647     3.2535432697
 F      5.6187427453    -6.1145742224     3.6323953664
 H      6.3976672029    -3.3270640239     3.7821618066
 F      6.5279867398    -3.7972284842     3.0057268778
 H      5.6143308427    -3.6837915382     5.7347678297
 F      5.9687028110    -2.9328318438     5.3457060793
          8
Energy: -28.894463001838062 Kcal/mole
 H      4.9911823786    -5.6313631312     5.1828627339
 F      4.8132951721    -5.1515790786     5.9438176634
 H      5.9518710446    -5.3991596584     3.2620462382
 F      5.5354975756    -6.1075818283     3.6690599523
 H      6.5288761141    -3.4010076180     3.8241779344
 F      6.6378808421    -3.8696594680     3.0435548418
 H      5.5734442895    -3.6715354715     5.7476501553
 F      6.0654480137    -2.9844111988     5.3917266113
          8
Energy: -28.88429035358402 Kcal/mole
 H      5.0558879618    -5.6629700439     5.1560332118
 F      4.9586239417    -5.1774671934     5.9278594180
 H      5.9559258956    -5.3773123660     3.2199922512
 F      5.5050194662    -6.0934860540     3.5730753017
 H      6.5336756602    -3.3920677561     3.8507781693
 F      6.6777154961    -3.8587090984     3.0746419806
 H      5.6288448473    -3.6366451398     5.7521244860
 F      6.0500900064    -2.9158487141     5.3727908219
          8
Energy: -28.90438502679831 Kcal/mole
 H      4.9442564014    -5.6245426862     5.0879406985
 F      4.7969825288    -5.1294415846     5.8456176123
 H      5.9146679040    -5.3534891581     3.1894041640
 F      5.4888901543    -6.0720988623     3.5678250949
 H      6.4736539990    -3.3722059074     3.7287020438
 F      6.5656154369    -3.8273591853     2.9379634096
 H      5.5679704665    -3.6479742629     5.6517049288
 F      6.0685860165    -2.9681922613     5.2936972452
          8
Energy: -28.891062997837906 Kcal/mole
 H      4.9785382625    -5.6281748650     5.0152409530
 F      4.8317942295    -5.1385913091     5.7765970658
 H      5.9376991617    -5.3681779766     3.1272074104
 F      5.5157688141    -6.0890762360     3.5055848428
 H      6.4799289542    -3.3706243541     3.6410717469
 F      6.6487607189    -3.8636385590     2.8865375668
 H      5.5075587461    -3.6399710688     5.5314405066
 F      5.9465913553    -2.9307339046     5.1504916741
          8
Energy: -28.898414430397366 Kcal/mole
 H      4.9828118136    -5.6310608405     5.0210091723
 F      4.8038320619    -5.1313542344     5.7687715385
 H      5.9920461370    -5.3939942904     3.1435292498
 F      5.5386615151    -6.0928353073     3.5268732437
 H      6.4569004119    -3.3748336834     3.5958056522
 F      6.6558118053    -3.8750440792     2.8534359212
 H      5.4680247571    -3.6208577043     5.4900351719
 F      5.8980169817    -2.9138187001     5.0949509616
          8
Energy: -28.902801247079395 Kcal/mole
 H      5.0025163469    -5.6170662611     4.9847618694
 F      4.7797956890    -5.0950308659     5.7050142938
 H      6.0713368937    -5.4314593873     3.1698828102
 F      5.6126672700    -6.1478802811     3.5123040117
 H      6.5113895480    -3.3887721795     3.6881850364
 F      6.7096066978    -3.9041301937     2.9560613593
 H      5.4587426976    -3.5743978031     5.5113410072
 F      5.9142879061    -2.8645991125     5.1514057606
          8
Energy: -28.890868347693612 Kcal/mole
 H      5.0799509873    -5.6646360855     5.0321687750
 F      4.8759045732    -5.1372629650     5.7540632636
 H      6.0974898327    -5.4064250889     3.2021018170
 F      5.7018155736    -6.1471476824     3.5704235790
 H      6.5223559371    -3.3824968811     3.6751108813
 F      6.6867951771    -3.8796360064     2.9223151412
 H      5.5426650529    -3.6109967790     5.5519977055
 F      5.9861790095    -2.8969190633     5.1855589164
          8
Energy: -28.89492168276891 Kcal/mole
 H      5.0349742560    -5.6989117542     5.0638673491
 F      4.8086219126    -5.1865248953     5.7898930536
 H      6.0902949171    -5.4482903023     3.2220059520
 F      5.7051271779    -6.1821752284     3.6143676828
 H      6.4023136648    -3.3848327575     3.6723243916
 F      6.6314843174    -3.8875267509     2.9404305734
 H      5.4081194342    -3.6477212982     5.5269288799
 F      5.8415557653    -2.9226726506     5.1701006220
          8
Energy: -28.919496887656663 Kcal/mole
 H      4.8999314299    -5.6245246570     4.9592085578
 F      4.7102328917    -5.1230428877     5.7031302604
 H      5.9752478621    -5.4181586771     3.1206844686
 F      5.4908767584    -6.1122702984     3.4735055153
 H      6.5610710032    -3.4237723619     3.6785967184
 F      6.7116304103    -3.9216169054     2.9233671669
 H      5.5083166026    -3.6621928629     5.5434893983
 F      6.0271857693    -2.9804607633     5.2165258955
          8
Energy: -28.906002634423174 Kcal/mole
 H      4.9440452914    -5.6823337692     4.9620632591
 F      4.7806582636    -5.1783966821     5.7105558051
 H      6.0326796921    -5.4450428623     3.1565548859
 F      5.5310692808    -6.1510011688     3.4580492720
 H      6.6584359602    -3.4964409729     3.7856693830
 F      6.8153365523    -3.9725695287     3.0178329405
 H      5.5785072735    -3.7113750378     5.5823589935
 F      6.1051382276    -3.0225871602     5.2838290992
          8
Energy: -28.90872735969822 Kcal/mole
 H      4.9881979076    -5.6832661344     4.9770905357
 F      4.8219270590    -5.1846246996     5.7284890480
 H      6.0804420181    -5.4954974508     3.1727299073
 F      5.5744238511    -6.1855352628     3.5024000949
 H      6.7084716730    -3.5101908052     3.7584046947
 F      6.8455792503    -4.0146945112     3.0050345845
 H      5.6171641621    -3.7118090101     5.5820110138
 F      6.1360869189    -3.0227078251     5.2709680436
          8
Energy: -28.915978085565968 Kcal/mole
 H      4.9060278668    -5.6642348952     4.9664597973
 F      4.7764047121    -5.1855384912     5.7377811250
 H      5.9511075894    -5.4244413536     3.1318073412
 F      5.4303851201    -6.1146646222     3.4373052128
 H      6.6656013278    -3.5207121768     3.7861757628
 F      6.7720944899    -3.9703834592     2.9941252946
 H      5.6571417850    -3.7659923509     5.6429153121
 F      6.1964740704    -3.0916473296     5.3342593901
          8
Energy: -28.90147061471049 Kcal/mole
 H      4.9237393793    -5.6681773200     4.9830550077
 F      4.8052867504    -5.2206858410     5.7746416113
 H      5.9347212239    -5.4115636136     3.1449853086
 F      5.4204182656    -6.1074216478     3.4485690094
 H      6.7249826881    -3.5276554607     3.8438379569
 F      6.7969829330    -3.9680941087     3.0427644508
 H      5.7119720930    -3.7955710979     5.6989455184
 F      6.2765608648    -3.1343860164     5.4074617165
          8
Energy: -28.90283538074894 Kcal/mole
 H      4.9294273770    -5.6786437945     5.0142309430
 F      4.8330856393    -5.2270360938     5.8064794862
 H      5.8354080297    -5.3902524100     3.0829989308
 F      5.3675103833    -6.0913127521     3.4442124261
 H      6.5754549552    -3.4997996593     3.7211112615
 F      6.6160665681    -3.9188579211     2.9064764537
 H      5.7171901371    -3.7978307573     5.6518532958
 F      6.2619859928    -3.1400856898     5.3180001818
          8
Energy: -28.91576130926032 Kcal/mole
 H      4.9200024247    -5.6804254397     5.0143258748
 F      4.8290224877    -5.2364241630     5.8114924304
 H      5.8942226502    -5.3898778306     3.1002648105
 F      5.3650009615    -6.0585980987     3.4373502701
 H      6.6843784027    -3.5385131624     3.7465533237
 F      6.7714272995    -3.9751154561     2.9448738824
 H      5.7267188906    -3.8290245141     5.6526476452
 F      6.2552148750    -3.1580270826     5.3189659984
          8
Energy: -28.91282220616955 Kcal/mole
 H      4.9109740623    -5.6635859734     5.0024331988
 F      4.8568088153    -5.2084311994     5.7966556221
 H      5.8963665479    -5.4293593538     3.1028465563
 F      5.3263460827    -6.0731628595     3.4214100747
 H      6.7891819164    -3.6269358656     3.8015160418
 F      6.8613426040    -4.0736130843     3.0039188392
 H      5.8058937615    -3.8524229146     5.6619768106
 F      6.3580240363    -3.1933227987     5.3431850338
          8
Energy: -28.910230772243693 Kcal/mole
 H      4.9300555574    -5.6453546747     5.0010261879
 F      4.9014655740    -5.2015255893     5.8029534638
 H      5.8785710348    -5.4447430716     3.0930742634
 F      5.2982442946    -6.0699183914     3.4296239537
 H      6.8003073102    -3.6025103759     3.7845048283
 F      6.8636631756    -4.0729450425     2.9999245209
 H      5.8337006318    -3.8201572757     5.6680741626
 F      6.3945720148    -3.1667291367     5.3528853954
          8
Energy: -28.890933506190578 Kcal/mole
 H      4.9298275878    -5.6625995978     5.0077163893
 F      4.8666775828    -5.2283061689     5.8128811516
 H      5.8857892271    -5.4573601668     3.1184913253
 F      5.3046255023    -6.0855611855     3.4478865364
 H      6.8961307257    -3.6958098590     3.8431853042
 F      6.9242665531    -4.1339613184     3.0381258817
 H      5.8617037860    -3.8624727313     5.7112914729
 F      6.4683911270    -3.2496748121     5.3993649103
          8
Energy: -28.91902326803941 Kcal/mole
 H      4.9442170811    -5.6960838938     5.0139305196
 F      4.8875469895    -5.2402730736     5.8076017342
 H      5.9243061445    -5.4639269661     3.1231552295
 F      5.3595323804    -6.1154632976     3.4352770071
 H      6.8150108667    -3.6469154052     3.7985477827
 F      6.8761228473    -4.1046916960     3.0063387236
 H      5.8326815643    -3.8544649706     5.6829106407
 F      6.4102986618    -3.2185926603     5.3621086867
          8
Energy: -28.91524871557945 Kcal/mole
 H      4.9510779151    -5.6793356842     5.0120028485
 F      4.8916032318    -5.2269280960     5.8074141485
 H      5.8935715379    -5.4554789465     3.0948218539
 F      5.3462350481    -6.1044319218     3.4414799028
 H      6.7542354383    -3.6132389383     3.7357528682
 F      6.8379890154    -4.0676929151     2.9437011520
 H      5.8063029471    -3.8415899975     5.6487247218
 F      6.3323256775    -3.1798221848     5.2934045154
          8
Energy: -28.905207153580932 Kcal/mole
 H      4.9813451746    -5.7376163984     4.9919210707
 F      4.9464512085    -5.3283980844     5.8118062959
 H      5.9111769630    -5.4631709288     3.0834980486
 F      5.3649779070    -6.1185045518     3.4197917207
 H      6.7879415262    -3.6417976174     3.7267542592
 F      6.8243145557    -4.0701750069     2.9167796824
 H      5.8833111296    -3.9318909332     5.6677246527
 F      6.4211622313    -3.2718985571     5.3271145296
          8
Energy: -28.911784620950783 Kcal/mole
 H      5.0424989246    -5.7361468108     5.0256313924
 F      4.9750514305    -5.2767612539     5.8163935221
 H      5.9521927247    -5.5182466349     3.1250323120
 F      5.4285426173    -6.1872415192     3.4701778027
 H      6.7358610766    -3.6331059264     3.7326865507
 F      6.8026139212    -4.0978184871     2.9449840093
 H      5.8077701377    -3.8407272870     5.6219090422
 F      6.3242568643    -3.1701688688     5.2690891604
          8
Energy: -28.903134223898718 Kcal/mole
 H      5.0324501313    -5.7540777959     5.0628550649
 F      4.9936336412    -5.2928924402     5.8544928279
 H      5.9232671534    -5.5044503846     3.1207262413
 F      5.4031158578    -6.1664169423     3.4842257685
 H      6.7466916816    -3.6190214514     3.6952337763
 F      6.7971931200    -4.0948106958     2.9129530085
 H      5.8453457342    -3.8621664630     5.6159183071
 F      6.3637914673    -3.1921922370     5.2648662337
          8
Energy: -28.920036367257836 Kcal/mole
 H      5.0240440185    -5.7580435190     5.0423939600
 F      4.9908578178    -5.2971304766     5.8344462584
 H      5.9034998486    -5.5320028950     3.0964074755
 F      5.4008557379    -6.1994172667     3.4742909951
 H      6.7460405410    -3.6573506293     3.6606778161
 F      6.7705754757    -4.1211424005     2.8699918924
 H      5.8675861535    -3.8906219765     5.6077977219
 F      6.3900790790    -3.2314208613     5.2426347001
          8
Energy: -28.924920870607934 Kcal/mole
 H      5.0923834525    -5.7775914194     5.0680458504
 F      5.0727783945    -5.3240105098     5.8647697675
 H      5.9079626287    -5.5134388510     3.0901342732
 F      5.4181740381    -6.1874130855     3.4732202528
 H      6.7393561424    -3.6300062723     3.6814766098
 F      6.7649506998    -4.0794091941     2.8825580079
 H      5.9146392411    -3.8965946781     5.6476047561
 F      6.4152292055    -3.2223282797     5.2792794767
          8
Energy: -28.915178392173942 Kcal/mole
 H      5.1797978645    -5.8609685733     5.1080346533
 F      5.1838735309    -5.4411327721     5.9232709927
 H      5.9055336011    -5.5209542513     3.0956752265
 F      5.4377687917    -6.2083073788     3.4824965823
 H      6.7167225175    -3.6540565927     3.6914605310
 F      6.7342963761    -4.0835863466     2.8814701916
 H      6.0001416960    -4.0097225232     5.6975874321
 F      6.4591438677    -3.3133492697     5.3164440232
          8
Energy: -28.910897694965854 Kcal/mole
 H      5.2054609050    -5.8826190983     5.1102472632
 F      5.1505336773    -5.4354116505     5.9089195980
 H      5.9899860899    -5.5648990585     3.1372941093
 F      5.5338107847    -6.2659119325     3.5132915049
 H      6.7683264580    -3.6789114571     3.7314333057
 F      6.8075997722    -4.1098140751     2.9229349813
 H      5.9518769402    -3.9894016255     5.6940733709
 F      6.4279584234    -3.3018772436     5.3178478460
          8
Energy: -28.906204249487615 Kcal/mole
 H      5.1381204263    -5.8591232257     5.1142997619
 F      5.0785783654    -5.3973259242     5.9042915310
 H      5.9857936022    -5.5645440561     3.1436003695
 F      5.5244244637    -6.2546429301     3.5332040940
 H      6.7597562872    -3.6809011510     3.7398748781
 F      6.7951239746    -4.1175698138     2.9342952076
 H      5.9188025834    -3.9708822873     5.6909265159
 F      6.4307690682    -3.3033460609     5.3259954198
          8
Energy: -28.90761063965462 Kcal/mole
 H      5.0864141187    -5.8221812408     5.1089926630
 F      5.0571674363    -5.3627043063     5.9020340101
 H      5.9718050278    -5.5652406603     3.1371491128
 F      5.4722747010    -6.2350001022     3.5150125042
 H      6.8008724647    -3.7041676982     3.7481424866
 F      6.8480824747    -4.1425265530     2.9440891741
 H      5.9403176084    -3.9498451868     5.6937208166
 F      6.4467544808    -3.2786066653     5.3278662805
          8
Energy: -28.926422350724494 Kcal/mole
 H      5.1148694839    -5.8111262339     5.0916621015
 F      5.0690486128    -5.3622632641     5.8899800095
 H      6.0043102081    -5.5726635606     3.1555678773
 F      5.4823428894    -6.2350659777     3.5156541949
 H      6.8389829149    -3.7070027571     3.7486283646
 F      6.8872943895    -4.1698997785     2.9585135950
 H      5.9552202956    -3.9560272569     5.7024776145
 F      6.4710803829    -3.2915741916     5.3374029723
          8
Energy: -28.9171555919732 Kcal/mole
 H      5.1508098693    -5.8222284331     5.1029594030
 F      5.1037807370    -5.3612729932     5.8942857220
 H      6.0206885762    -5.5637977846     3.1635290028
 F      5.5128038666    -6.2329506778     3.5311926089
 H      6.8199945748    -3.6830275317     3.7403387524
 F      6.8842054346    -4.1422288005     2.9492002309
 H      5.9430043367    -3.9395823683     5.6887159629
 F      6.4481956950    -3.2668711475     5.3238457053
          8
Energy: -28.910510462865233 Kcal/mole
 H      5.1576057347    -5.8095349683     5.0970844882
 F      5.1484337409    -5.3820400577     5.9082891332
 H      5.9583033462    -5.5421856347     3.1498810060
 F      5.4689436995    -6.2251069291     3.5173516061
 H      6.7882873440    -3.6677389180     3.7414358791
 F      6.8046539461    -4.1072640134     2.9368000455
 H      5.9956263718    -3.9542698260     5.7012608093
 F      6.4928139738    -3.2738347453     5.3397340617
          8
Energy: -28.9254107620701 Kcal/mole
 H      5.2075317251    -5.8543608891     5.1289645787
 F      5.2017614903    -5.4134154130     5.9329688023
 H      5.9499227055    -5.5359665100     3.1504348787
 F      5.4693882731    -6.2254368393     3.5173222244
 H      6.7874883134    -3.6712087642     3.7428616336
 F      6.7879142726    -4.1045761331     2.9347270272
 H      6.0527107658    -3.9758173219     5.7284589653
 F      6.5355050701    -3.2936956549     5.3509557320
          8
Energy: -28.919307077523086 Kcal/mole
 H      5.1588491245    -5.8124746481     5.1157336083
 F      5.1474296096    -5.3627179882     5.9147815052
 H      5.9309215467    -5.5265475269     3.1439542027
 F      5.4703962406    -6.2259364945     3.5176660093
 H      6.7818848289    -3.6531199344     3.7494322852
 F      6.7659440472    -4.0832191953     2.9397104087
 H      6.0325768942    -3.9564193658     5.7202157422
 F      6.5302875053    -3.2766002674     5.3582500796
          8
Energy: -28.916935953668855 Kcal/mole
 H      5.1762163620    -5.8236828640     5.1226031550
 F      5.1465083178    -5.3621234182     5.9144170916
 H      6.0019011016    -5.5644649988     3.1658064686
 F      5.5086296018    -6.2416098461     3.5386966445
 H      6.8169206043    -3.6765767272     3.7641985856
 F      6.8237182525    -4.1187648905     2.9608851846
 H      6.0049550248    -3.9413291806     5.7089507664
 F      6.5317527817    -3.2774007668     5.3588476605
          8
Energy: -28.91348177574463 Kcal/mole
 H      5.1692734878    -5.8001325527     5.1169896588
 F      5.1153906449    -5.3406979526     5.9087632928
 H      6.0123533462    -5.5775150679     3.1669886224
 F      5.5022317336    -6.2428292907     3.5385016442
 H      6.8501191782    -3.7018274392     3.7717500257
 F      6.8593308011    -4.1400664824     2.9662994145
 H      6.0072271314    -3.9318296716     5.7295995612
 F      6.5316322517    -3.2779046938     5.3577522897
          8
Energy: -28.924561117477793 Kcal/mole
 H      5.1231037108    -5.7799605929     5.1006083271
 F      5.0991039241    -5.3265335556     5.8972995672
 H      5.9858739063    -5.5795575765     3.1676257424
 F      5.4509750423    -6.2292404378     3.5318844209
 H      6.8417103248    -3.7106773576     3.7545479005
 F      6.8842055330    -4.1806018501     2.9682565242
 H      5.9830533278    -3.9217678612     5.6949389030
 F      6.5031187586    -3.2596997753     5.3315014292
          8
Energy: -28.921343706807164 Kcal/mole
 H      5.0377187154    -5.7355217981     5.1236502815
 F      5.0351303708    -5.2861166518     5.9229733170
 H      5.9143724586    -5.5331340606     3.1776935555
 F      5.3643171848    -6.1670094162     3.5471935275
 H      6.8511831740    -3.7148422917     3.7642304330
 F      6.8759068156    -4.1710378092     2.9691433991
 H      5.9689578546    -3.9184957917     5.7155860091
 F      6.5104330058    -3.2785482080     5.3438861965
          8
Energy: -28.917580476408403 Kcal/mole
 H      5.0311471872    -5.7395998927     5.1322563967
 F      5.0143533203    -5.2685655716     5.9188526300
 H      5.9535009781    -5.5474346746     3.1970525631
 F      5.4000674220    -6.1856148277     3.5538808005
 H      6.8531511078    -3.7095182140     3.7612094619
 F      6.8758024212    -4.1713202392     2.9693036547
 H      5.9508353349    -3.8973286105     5.7081551278
 F      6.4898956355    -3.2557471725     5.3357625249
          8
Energy: -28.921817866869276 Kcal/mole
 H      5.0536575558    -5.7528507563     5.1299003965
 F      5.0251726005    -5.2763308428     5.9128476357
 H      5.9735845829    -5.5590881321     3.2061869920
 F      5.4335739115    -6.2087038473     3.5629458706
 H      6.8582994897    -3.7087248973     3.7675884449
 F      6.8884889676    -4.1865385566     2.9854940117
 H      5.9509401459    -3.9036248383     5.6972346268
 F      6.4898900755    -3.2554131721     5.3363418322
          8
Energy: -28.916293642080348 Kcal/mole
 H      5.0642844840    -5.7589523549     5.1371355459
 F      5.0164431147    -5.2688091416     5.9106727679
 H      5.9884524202    -5.5850463082     3.1982512412
 F      5.4559798060    -6.2289862563     3.5760120891
 H      6.8561858266    -3.7077266064     3.7668929545
 F      6.8886010925    -4.1865915137     2.9855309059
 H      5.9300119600    -3.8871231117     5.6945735908
 F      6.4910002674    -3.2562885506     5.3364829940
          8
Energy: -28.928102797131515 Kcal/mole
 H      5.0633549797    -5.7515105732     5.1324161009
 F      5.0164924227    -5.2692039109     5.9109231236
 H      5.9883183768    -5.5777321979     3.1986664600
 F      5.4586763169    -6.2266335924     3.5718892736
 H      6.8494015515    -3.7124351621     3.7621146996
 F      6.8864288567    -4.1879704884     2.9789262599
 H      5.9491608540    -3.8972457829     5.7058625127
 F      6.4899844629    -3.2557515663     5.3358841428
          8
Energy: -28.921299676526132 Kcal/mole
 H      5.0798983888    -5.7512398521     5.1330986137
 F      5.0316530739    -5.2712406186     5.9129461150
 H      5.9760792611    -5.5703074565     3.1945202050
 F      5.4593255737    -6.2270274578     3.5721092228
 H      6.8149761175    -3.6816893607     3.7387525085
 F      6.8371671977    -4.1539940310     2.9530522766
 H      5.9538931269    -3.9024355635     5.7015091964
 F      6.4873573872    -3.2517874473     5.3368697694
          8
Energy: -28.920862249784392 Kcal/mole
 H      5.0953962653    -5.7554891224     5.1368567234
 F      5.0308309474    -5.2710152046     5.9127467560
 H      5.9705362601    -5.5712143838     3.1879856878
 F      5.4754530653    -6.2390546010     3.5749883682
 H      6.8041021792    -3.6873864272     3.7436659530
 F      6.8188415895    -4.1522596213     2.9533719170
 H      5.9331287387    -3.8773477426     5.6912173431
 F      6.4630627612    -3.2260964724     5.3225295146
          8
Energy: -28.923870400874307 Kcal/mole
 H      5.0782600206    -5.7545848904     5.1350681261
 F      5.0317399856    -5.2710631720     5.9128416370
 H      5.9748214399    -5.5806917789     3.1963170876
 F      5.4611525835    -6.2418502724     3.5703528512
 H      6.7896315998    -3.6824759137     3.7447458604
 F      6.8260900708    -4.1556463568     2.9600997543
 H      5.9390343637    -3.8794900594     5.6958347979
 F      6.4627494815    -3.2259828275     5.3222845693
          8
Energy: -28.926690182567626 Kcal/mole
 H      5.1078437920    -5.7702758812     5.1483523530
 F      5.0631867743    -5.2871189949     5.9264617116
 H      5.9600144334    -5.5638134428     3.1808887895
 F      5.4608290685    -6.2268255462     3.5709117661
 H      6.7684953188    -3.6684278931     3.7413787267
 F      6.8172643594    -4.1407445676     2.9568868276
 H      5.9224370544    -3.8639696935     5.6931707772
 F      6.4251075611    -3.2003414586     5.3087115107
          8
Energy: -28.926068046479372 Kcal/mole
 H      5.1250752805    -5.7697678658     5.1428173645
 F      5.0757256170    -5.2898605594     5.9226523393
 H      5.9649961380    -5.5610791287     3.1921270506
 F      5.4605648006    -6.2269705952     3.5703156024
 H      6.7734437131    -3.6642121262     3.7391163783
 F      6.8170018585    -4.1409682043     2.9570068400
 H      5.9233879947    -3.8603213695     5.7006162176
 F      6.4250571159    -3.2005349938     5.3083165473
          8
Energy: -28.926082483125327 Kcal/mole
 H      5.1254160241    -5.7796760912     5.1472317970
 F      5.0994340716    -5.3066320552     5.9323708153
 H      5.9611646839    -5.5648344205     3.1864338027
 F      5.4396283797    -6.2208544730     3.5586253852
 H      6.7878175938    -3.6799396077     3.7547237211
 F      6.8379237208    -4.1594471256     2.9746910832
 H      5.9312436201    -3.8719297493     5.6907439542
 F      6.4246403931    -3.1999191961     5.3088402481
          8
Energy: -28.92759424009148 Kcal/mole
 H      5.1235336753    -5.7773831807     5.1388343681
 F      5.0971476159    -5.3119227548     5.9284794579
 H      5.9547169746    -5.5602274516     3.1856088835
 F      5.4399704158    -6.2210988621     3.5586691453
 H      6.7982440701    -3.6766370220     3.7532811379
 F      6.8373706203    -4.1596223201     2.9747676089
 H      5.9316682886    -3.8806299459     5.6969650317
 F      6.4276376650    -3.2071007534     5.3211169181
          8
Energy: -28.92556121250078 Kcal/mole
 H      5.1145390313    -5.7755500036     5.1503244137
 F      5.0948747630    -5.3053313215     5.9373420168
 H      5.9481977154    -5.5662442481     3.1942498742
 F      5.4402149098    -6.2297087238     3.5719499651
 H      6.7894904645    -3.6837078264     3.7571322180
 F      6.8378349788    -4.1592472303     2.9745633180
 H      5.9333472204    -3.8749977778     5.7090215172
 F      6.4275486016    -3.2073995269     5.3204773494
          8
Energy: -28.926320373287325 Kcal/mole
 H      5.1142085536    -5.7709118782     5.1459812929
 F      5.0870581366    -5.3073600949     5.9367224636
 H      5.9515830216    -5.5727917924     3.1874418914
 F      5.4400353272    -6.2293613917     3.5723111129
 H      6.7969643252    -3.6783471202     3.7542740033
 F      6.8374385078    -4.1595316034     2.9747149397
 H      5.9305686014    -3.8737431178     5.7076278397
 F      6.4276960009    -3.2074660837     5.3205512808
          8
Energy: -28.927839919009813 Kcal/mole
 H      5.1207983108    -5.7838098716     5.1539506492
 F      5.0867085653    -5.3066758861     5.9362997076
 H      5.9609910889    -5.5732662935     3.1990580505
 F      5.4505762430    -6.2367194827     3.5734850139
 H      6.7949188132    -3.6780444050     3.7539780030
 F      6.8375470175    -4.1595476617     2.9747306418
 H      5.9336444536    -3.8750732683     5.7092696582
 F      6.4275328340    -3.2073955223     5.3204641861
          8
Energy: -28.928460393864725 Kcal/mole
 H      5.1215074993    -5.7830753772     5.1535344206
 F      5.0866709444    -5.3067148494     5.9363217876
 H      5.9661705820    -5.5769534794     3.1996426192
 F      5.4503014828    -6.2365238860     3.5734540038
 H      6.7899694496    -3.6757134033     3.7522446535
 F      6.8378095698    -4.1596713160     2.9748225920
 H      5.9288490124    -3.8776435242     5.6985692215
 F      6.4277872211    -3.2072591761     5.3210318196
          8
Energy: -28.929884842655724 Kcal/mole
 H      5.1235297476    -5.7833421180     5.1537895830
 F      5.0865636688    -5.3067006994     5.9363082518
 H      5.9760064752    -5.5730041880     3.2050537043
 F      5.4658307262    -6.2365959971     3.5795608685
 H      6.7952092840    -3.6803271895     3.7553995007
 F      6.8375316087    -4.1594265653     2.9746552346
 H      5.9265617936    -3.8727764976     5.7041057099
 F      6.4279085528    -3.2075173606     5.3207381217
          8
Energy: -28.92924307709083 Kcal/mole
 H      5.1200566123    -5.7810234908     5.1522265867
 F      5.0867479106    -5.3068236972     5.9363911652
 H      5.9801728680    -5.5781274488     3.2017283234
 F      5.4656097087    -6.2363242200     3.5797372723
 H      6.7942785716    -3.6815694657     3.7561094000
 F      6.8375809808    -4.1593606654     2.9746175761
 H      5.9272035217    -3.8761554034     5.6998745939
 F      6.4268595532    -3.2094417479     5.3168266180
          8
Energy: -28.930190525993538 Kcal/mole
 H      5.1224873821    -5.7791251814     5.1511890023
 F      5.0866189639    -5.3069243981     5.9364462066
 H      5.9758674233    -5.5768843964     3.1980785088
 F      5.4658381026    -6.2363901610     3.5799308865
 H      6.7884323039    -3.6757528065     3.7521729867
 F      6.8378911118    -4.1596692257     2.9748263937
 H      5.9310722132    -3.8787592829     5.7003586048
 F      6.4266543281    -3.2093036181     5.3168009424
          8
Energy: -28.930955418251358 Kcal/mole
 H      5.1250291000    -5.7823283939     5.1532453442
 F      5.0864841317    -5.3067544751     5.9363371224
 H      5.9843894419    -5.5808515561     3.2019463849
 F      5.4756636019    -6.2435822238     3.5799345883
 H      6.7887020280    -3.6787677541     3.7540584092
 F      6.8378768036    -4.1595092897     2.9747263764
 H      5.9299756087    -3.8782375434     5.6998499751
 F      6.4267125004    -3.2093312952     5.3168279240
          8
Energy: -28.931326327617114 Kcal/mole
 H      5.1266323692    -5.7842181953     5.1544770911
 F      5.0863990819    -5.3066542255     5.9362717811
 H      5.9819940314    -5.5793533305     3.2013609074
 F      5.4757906729    -6.2436617012     3.5799656465
 H      6.7887898124    -3.6784535598     3.7538700374
 F      6.8378721468    -4.1595259570     2.9747363691
 H      5.9284826075    -3.8768029952     5.7004126724
 F      6.4267917007    -3.2094073947     5.3167980742
