          8
Energy: -26.681463748986943 Kcal/mole
 H     -5.7764978645     6.4977984342     0.0526092295
 F     -5.6988892607     6.1254155613    -0.7817749150
 H     -3.9957332059     6.2882583237     1.5340598822
 F     -4.8161129254     6.6965757137     1.5678685338
 H     -2.3612700357     5.7948137105     0.2760976115
 F     -2.4177146997     5.6495754939     1.1797617418
 H     -3.9812957312     6.2355868451    -1.1904021055
 F     -3.0656493908     6.2853825116    -1.1893199779
          8
Energy: -27.085459236342786 Kcal/mole
 H     -4.4203098392     3.1481239210    -0.4669010894
 F     -3.7365264877     3.0503970755    -1.0700418622
 H     -4.5862393645     3.8368410052     1.5240805920
 F     -5.1694160070     3.3687656044     0.9933269553
 H     -2.1921985703     4.0622669548     1.2942715621
 F     -2.8149026402     4.2258236710     1.9472477039
 H     -2.1014170303     3.4832986617    -0.5220523325
 F     -1.4212016637     3.8565837024    -0.0333250738
          8
Energy: -27.177039138496866 Kcal/mole
 H     -1.8630565766     3.7814024843    -0.0631945657
 F     -1.6972303124     3.0647727475     0.4843750375
 H     -1.6948574186     5.7901709439    -0.0478648406
 F     -1.9330830347     5.3484745816    -0.8153554786
 H     -1.2768506527     5.6836547276     2.2009728395
 F     -1.5215125562     6.3387717113     1.6078022986
 H     -1.4962239420     3.6351898612     2.0519386294
 F     -1.2447802541     4.0686220997     2.8199240241
          8
Energy: -27.564412184660227 Kcal/mole
 H      0.8775079491     3.7849433890     2.7470644852
 F      0.5759665590     2.9278337479     2.6232708945
 H     -5.091636E-40     5.2784873072     3.5100638502
 F      0.8880113855     5.3282833244     3.2888386472
 H     -1.8909080710     4.1555194562     3.7498227774
 F     -1.6044487520     5.0242253438     3.6851687801
 H     -0.9292617348     2.4792560940     3.3050835343
 F     -1.7231083211     2.5144427304     3.7627498954
          8
Energy: -27.75662552385606 Kcal/mole
 H      0.9758749301     1.9145099214     3.6370248053
 F      1.5485582036     1.2704800599     3.3237383457
 H     -0.6209353559     3.2727961305     2.9035042960
 F     -0.2991866554     3.0681649630     3.7374664408
 H     -0.0646662673     2.5017352749     0.9957815103
 F     -0.6937590865     3.1376862727     1.1975178561
 H      1.4396532185     1.1427077043     1.7407153139
 F      1.2492610830     1.2921685740     0.8562373418
          8
Energy: -27.54768788954948 Kcal/mole
 H     -1.2145021476    -1.7709830208     0.6661362533
 F     -0.3510086120    -1.6618388492     0.9548497161
 H     -2.4928528869    -1.0573145860    -0.9753910204
 F     -2.6613695571    -1.4620295996    -0.1699738058
 H     -0.8690516513    -0.0694734073    -1.9017280710
 F     -1.7578662517     0.0424779559    -2.0975966454
 H      0.4054736485    -0.7452564536    -0.3388896737
 F      0.5001437658    -0.4486352082    -1.2014106333
          8
Energy: -27.990024773710303 Kcal/mole
 H      0.8324099407    -1.6573362166     0.5061923772
 F      1.0482829607    -0.7709396000     0.5988685725
 H     -0.4036421019    -2.9546253367    -1.0210656080
 F      0.0384649954    -3.1781478980    -0.2493998908
 H     -0.9386432351    -1.0254775106    -2.0807927238
 F     -1.1681295919    -1.9105127330    -2.1510612602
 H      0.3107506204     0.0760557049    -0.6178167801
 F     -0.1672038644     0.3340718707    -1.3566511111
          8
Energy: -27.99725510105972 Kcal/mole
 H      1.2963848244    -5.4915091680    -2.9845092168
 F      1.9117823554    -6.1443797239    -3.1740742876
 H      0.8207410667    -4.3206097254    -1.4442299275
 F      0.4486033077    -4.3120193765    -2.2822804596
 H      2.6718063973    -4.9759397679    -0.2680344114
 F      1.9242650727    -4.5140220980    -0.0059217749
 H      3.1857121583    -6.0891463823    -2.0554172385
 F      3.7150759464    -5.8523442389    -1.3450738534
          8
Energy: -27.020582907541552 Kcal/mole
 H     -0.8050797941    -0.5348323414     2.5716265120
 F      0.0957922170    -0.7032668259     2.6024233299
 H     -2.6224338892    -1.1070233223     1.5000035086
 F     -2.5365753075    -0.5910718522     2.2532042683
 H     -0.8244908094    -1.2889933173    -0.2326821998
 F     -1.7011783069    -1.5509816368    -0.1721004194
 H      0.6063449820    -0.7788876862     1.0626278823
 F      0.7189171174    -0.8025679495     0.1528720033
          8
Energy: -28.13053934254802 Kcal/mole
 H      0.4729867789     0.3728909166     2.6173429392
 F      1.0966318107     0.4483304249     3.2853734437
 H      0.4249158970    -0.5998294796     0.7271198600
 F     -0.1664132665    -0.0384487942     1.1467274701
 H      2.4791742993    -1.5680897548     1.0441027851
 F      1.8059160386    -1.5773963618     0.4215871616
 H      2.5557157145    -0.5006187568     3.0497299226
 F      3.1884693302    -1.0285410233     2.6474738569
          8
Energy: -27.739915702138035 Kcal/mole
 H      2.0483687728    -3.2083749917     4.8896260496
 F      1.4483942875    -2.5182092124     4.8218705033
 H      3.9953636736    -3.7694941358     4.5419591510
 F      3.3261656308    -4.3227264227     4.8369117170
 H      4.2996975020    -1.8197467690     3.7634942045
 F      4.8203502408    -2.5582294972     3.9198687094
 H      2.1767756827    -1.2549277930     3.8280096236
 F      2.9524286443    -0.8456626619     3.5601411192
          8
Energy: -27.201548063665626 Kcal/mole
 H      2.9752045987    -0.5178922203     2.5802844968
 F      2.8076892562    -1.0977572070     3.2706352825
 H      2.0204918030     0.2802091813     1.0798408821
 F      2.8992859132     0.4379555148     1.2889485246
 H     -0.0228740255    -0.4292877895     1.6924094217
 F      0.3210410131     0.0132005367     0.9665888327
 H      1.0936484797    -1.3901657574     3.2109424247
 F      0.2161376738    -1.5348103232     2.9874659491
          8
Energy: -27.384051994840775 Kcal/mole
 H     -0.7047907363    -2.9197024265     2.8543185388
 F     -0.1470130997    -2.3226231138     2.4380621244
 H     -2.3461956516    -3.3381259930     4.0623919284
 F     -1.8429385293    -3.9376847551     3.5847408428
 H     -2.2212259515    -1.0231268242     4.2200980884
 F     -2.7942054756    -1.6736035390     4.5192025993
 H     -0.6574459295    -0.6683319888     2.7584031245
 F     -1.2170280938    -0.0552320004     3.1481019895
          8
Energy: -27.3117566500552 Kcal/mole
 H     -2.0789439628    -5.6079097475     6.7140080805
 F     -1.2014421402    -5.8735530375     6.7317053607
 H     -3.6155221761    -5.0030196031     5.0935399991
 F     -3.5550966935    -5.0347878156     6.0079953243
 H     -1.9225426717    -4.7232843270     3.7050559441
 F     -2.8228060549    -4.6382762153     3.5527783623
 H     -0.3082889835    -5.4205672099     5.2125925546
 F     -0.3431349596    -5.1210733540     4.3465797439
          8
Energy: -27.561252903319513 Kcal/mole
 H     -4.4069897593    -2.9745488978     6.1430871927
 F     -4.3057895364    -2.2889323387     5.5426061782
 H     -4.3478180564    -4.9753439861     6.1903231754
 F     -4.6289261783    -4.4365034936     6.8769949656
 H     -2.8294746439    -4.7186848858     4.6059000483
 F     -3.3178356688    -5.4597492866     4.8365861190
 H     -2.8918901541    -2.6909362204     4.7962536283
 F     -2.2584154486    -3.2248995298     4.4032116690
          8
Energy: -26.36161977602771 Kcal/mole
 H     -3.0241739679    -5.5272502554     3.0764489297
 F     -2.4814535983    -4.9849654036     2.5741833227
 H     -4.2155040294    -7.2840801742     2.0862965547
 F     -3.8363970446    -7.1027142175     2.9013261762
 H     -4.5114797341    -6.0616726022     0.2399799079
 F     -4.7914564334    -6.9118841284     0.4390839225
 H     -3.3110924037    -4.5294883185     1.0840700509
 F     -3.8216895299    -4.5414338518     0.3224685285
          8
Energy: -27.983601017093946 Kcal/mole
 H     -2.5475326902    -5.1654066134     4.5623791621
 F     -2.0577888235    -5.9034231982     4.7998059205
 H     -2.4852811631    -3.0539741173     3.6422905011
 F     -3.1005883023    -3.6878900304     3.8881293498
 H     -0.4793724965    -3.1851791547     3.6060125295
 F     -0.9626030759    -2.4245819776     3.4361033147
 H     -0.6260578140    -5.2358160072     4.4982699280
 F      0.0306999916    -4.6826199026     4.1765056439
          8
Energy: -27.9955282889824 Kcal/mole
 H     -0.3266882892    -1.9018484559     2.0023538911
 F     -0.9459299051    -2.4513287226     2.3966891008
 H      0.5189355544    -0.0300210837     2.4147325179
 F      0.7945968799    -0.6193235769     1.7684954057
 H     -0.6244050328     0.1680130306     4.2801215660
 F     -0.2111871915     0.7664193285     3.7215072821
 H     -1.1718918973    -1.8723019400     4.1346698918
 F     -1.1307308775    -1.2981046503     4.8484571451
          8
Energy: -28.18100102532273 Kcal/mole
 H      0.6292919415    -2.9952653633     3.2104797051
 F      0.4606702856    -2.8357055860     4.0976078890
 H      0.0381401237    -1.8867220998     1.3789781617
 F      0.5201266440    -2.6502816026     1.5388370995
 H     -0.6648204556    -0.2326268241     2.3362722618
 F     -0.7306146531    -0.3773652467     1.4331604677
 H     -0.0946974790    -1.2984852868     4.1560129529
 F     -0.2663393552    -0.4244904472     3.9379279082
          8
Energy: -27.92290244535596 Kcal/mole
 H      1.6966207677    -0.9875604600     1.1420507278
 F      1.9636432433    -1.5540888477     1.8118518800
 H      1.7720151867     1.0148792517     0.7520974027
 F      1.5801578384     0.3327168428     0.1700886351
 H      2.4159290022     1.3008382372     2.9198077824
 F      2.1832025152     1.8595472473     2.2309161913
 H      2.7185342302    -0.8695849723     3.2828969503
 F      2.9430221552    -0.1189010755     3.7593083888
          8
Energy: -27.537867407679954 Kcal/mole
 H      4.2078635370     0.0799055577     1.4125521120
 F      4.7905301324    -0.6270503968     1.3725281566
 H      3.2465089952     1.5509861059     2.6955525179
 F      3.1937471998     1.4253871217     1.7887283408
 H      4.4361260598     0.7594724525     4.5539067476
 F      3.9374372893     1.5075616843     4.3734600473
 H      5.2648608885    -0.8338038084     3.0368172410
 F      5.3439370882    -0.6227717247     3.9256937309
          8
Energy: -27.346509741045878 Kcal/mole
 H      4.8985440731     0.6896735692     0.6689302151
 F      4.1979000258     0.2422883869     1.0560134330
 H      6.3035022350     2.3937834615     0.8570036276
 F      6.2934479653     1.6993320300     0.2582339548
 H      5.2534167923     2.6815728079     3.0041733663
 F      5.7025085368     3.2772848940     2.4709447892
 H      4.3152995900     0.6982777679     2.6504272219
 F      4.5272033296     1.1227663596     3.4351534421
          8
Energy: -27.837167240332178 Kcal/mole
 H      6.2369036737    -2.5938672020     0.0399485438
 F      6.9799570214    -2.5519923171     0.5756790884
 H      4.7854708412    -1.0726246240    -0.7609506746
 F      4.9331437387    -1.9705728490    -0.8739581982
 H      5.8119719780     0.3509927500     0.7350890109
 F      5.1716001706     0.4028195727     0.0807749205
 H      6.9859031106    -1.2146298790     1.4528379135
 F      6.9500247011    -0.3527386194     1.7638768120
          8
Energy: -27.419116855051243 Kcal/mole
 H      4.1189193418    -3.4523653165    -0.0459308476
 F      4.7473994229    -3.6346363333     0.5964701674
 H      2.8699825176    -1.5521089856    -0.4049276933
 F      2.8489150412    -2.4230144826    -0.6912295914
 H      3.6208654797    -0.8778692058     1.3016829951
 F      3.4045723460    -0.3068162868     0.6175741996
 H      4.4139576640    -2.7341571609     1.9294623930
 F      4.0898838680    -2.0171010527     2.4003081346
          8
Energy: -28.33170924833189 Kcal/mole
 H      2.8679566962    -2.2321902879    -1.2308619765
 F      3.6806117062    -1.9388650602    -0.9235491952
 H      0.8597341428    -3.0513108945    -0.6224514296
 F      1.3500858991    -2.9013680567    -1.3826890902
 H      1.4790130623    -2.6921134196     1.3816141677
 F      0.7199417144    -3.1200845364     1.0960613498
 H      3.4102377848    -1.8802296295     0.7650874578
 F      2.9675625600    -1.9834991981     1.5614937872
          8
Energy: -27.238320768235496 Kcal/mole
 H      2.1477824674    -2.4532615307    -2.1947260304
 F      2.2049228985    -3.3318474586    -2.4510670891
 H      1.7775056555    -1.4404985765    -0.4448584460
 F      1.8085144268    -1.0850296675    -1.2895887644
 H      1.6808656233    -3.4238180880     0.5845466303
 F      1.7483576483    -2.5502866296     0.8552431721
 H      1.8711863795    -4.6585622009    -1.1544216519
 F      1.9777184235    -4.8779497208    -0.2704482136
          8
Energy: -27.755215815990567 Kcal/mole
 H      0.0478980604    -4.6755078141    -1.3106022177
 F      0.5540673375    -5.3229914514    -0.9038509394
 H     -0.4583522466    -2.8823819201    -0.6348806139
 F     -0.7156392739    -3.2403274469    -1.4389747535
 H      0.5732235684    -3.3503400162     1.1875626384
 F      0.2573922199    -2.5722320367     0.8192047531
 H      1.1220951617    -5.1930569703     0.6735953128
 F      1.0875905754    -4.8584199090     1.5266583062
          8
Energy: -27.512036705281105 Kcal/mole
 H     -0.3822486149    -5.8019666872     1.9154353926
 F      0.4350275350    -5.9590755221     1.5303827874
 H     -1.8306235549    -4.3141621771     1.6512461077
 F     -1.8749887060    -5.0041032561     2.2536596208
 H     -0.4813343441    -3.4636448531    -0.0681702981
 F     -1.2882159953    -3.4243408468     0.3657492752
 H      1.0355859140    -4.7927602837     0.2607474106
 F      1.0076442907    -4.1182403128    -0.3598418857
          8
Energy: -28.486797860464804 Kcal/mole
 H     -0.3205132887    -3.7584046604     1.2431569610
 F      0.5829529298    -3.7571894391     1.4001165585
 H     -1.6473333571    -4.2157146438    -0.4676887544
 F     -1.7584471481    -3.9837693242     0.4125067319
 H      0.0548926625    -4.9204194308    -1.5300693219
 F     -0.7876031235    -4.7064374259    -1.8221336163
 H      1.3466355116    -4.6887599570     0.1779257239
 F      1.4004505891    -5.1805692490    -0.5941601248
          8
Energy: -27.905117617378295 Kcal/mole
 H     -1.1389542555    -3.4558192582     2.9870085811
 F     -1.4305561580    -4.3137961777     2.8465346122
 H      0.8639326692    -2.4366963195     2.6103375287
 F      0.0456613540    -2.1563642869     2.9148617579
 H      1.7242154792    -4.0583951784     1.6144261196
 F      2.1168366548    -3.3236815297     1.9977451341
 H     -0.2146302307    -5.2314432822     2.1112783641
 F      0.5314845777    -5.4257012008     1.6148253917
          8
Energy: -28.147418836767855 Kcal/mole
 H     -0.6310539621    -2.5743218072     4.2103729523
 F     -0.5872189668    -2.4887145769     3.2984305773
 H     -1.3048100893    -4.0691411913     5.8477034166
 F     -0.9024247707    -3.2451623979     5.8418721595
 H     -1.6947856542    -5.5348328529     4.2530777736
 F     -1.7793334793    -5.5729385549     5.1653763106
 H     -1.2089611273    -3.9430299686     2.7724650712
 F     -1.4159373560    -4.8339531200     2.7068466358
          8
Energy: -28.52785011071677 Kcal/mole
 H     -0.4572487759    -4.3367195138     3.3278004305
 F     -0.9054307677    -5.1186345638     3.1585941750
 H      0.0470089538    -2.5007502706     2.1704761421
 F      0.3101035166    -2.7686609459     3.0070728915
 H     -1.0317037913    -3.2531235549     0.4145044875
 F     -0.6833126024    -2.4305529577     0.6216039614
 H     -1.3708098096    -5.1000474777     1.5747223107
 F     -1.4779598340    -4.9041409707     0.6853244735
          8
Energy: -28.291574091600808 Kcal/mole
 H      0.3962567301    -4.3402343346     4.2327576966
 F      0.4785915194    -5.2343827312     4.4187916377
 H      0.6378729448    -2.7432969004     2.6368849402
 F      0.3562347941    -2.8114937571     3.5068953659
 H      1.3486980892    -4.1656618429     1.3789190027
 F      1.1549571986    -3.3037053826     1.1331863676
 H      1.1667840622    -5.6576829980     2.9729306011
 F      1.4899312524    -5.6778751722     2.1149928588
          8
Energy: -28.38920370025346 Kcal/mole
 H      1.3054737604    -5.0582265680     6.2402695930
 F      0.5090410881    -5.2047015824     6.6705358694
 H      2.1073811529    -5.1452212879     4.1252480235
 F      2.4726232156    -5.1080726055     4.9655498805
 H      0.1746217896    -5.0777220937     3.3497690006
 F      0.9759938018    -5.1763324831     2.9150646306
 H     -0.5857300601    -5.1990706630     5.4495767242
 F     -0.9508836169    -5.1224719561     4.6119106105
          8
Energy: -28.28759809640769 Kcal/mole
 H     -0.7902223839    -5.3715486136     3.9435246497
 F     -0.8135793453    -5.5052103449     4.8504303747
 H      0.2200009153    -6.3193058585     2.2524689831
 F     -0.4588607172    -5.7029336066     2.2414630300
 H      1.2550671856    -7.4421143770     3.7720518173
 F      1.4365349725    -7.3055802528     2.8836167463
 H      0.2154164375    -6.6824614861     5.4253427949
 F      0.8279995732    -7.3638088778     5.3879712325
          8
Energy: -27.983380240762557 Kcal/mole
 H     -0.6817584238    -4.1117154052     4.1521658202
 F     -0.6155514526    -4.6516010129     4.8904267277
 H      0.7461761358    -3.6681625049     2.5584149051
 F     -0.1035729173    -3.3415824423     2.6686918723
 H      2.3104693405    -4.7795670510     3.5883643932
 F      2.1179802283    -4.5192676659     2.7304126627
 H      1.0358866350    -4.9770493476     5.3961763413
 F      1.9434268661    -5.0752820032     5.3089406011
          8
Energy: -28.47507364029306 Kcal/mole
 H     -0.8460116479    -3.5525351625     5.7938167565
 F     -1.1322837401    -4.1923563248     6.3850579674
 H      0.6496516951    -3.3486180065     4.2522639674
 F      0.0062838386    -2.7875250921     4.5871393809
 H      1.4087987709    -5.2841723513     4.3622332273
 F      1.6150117653    -4.5633467722     3.8342411010
 H     -0.1300442409    -5.5162070219     6.0107918513
 F      0.4873907474    -6.0943528618     5.6566585107
          8
Energy: -28.657739953591232 Kcal/mole
 H     -0.7163277089    -4.3754654365     6.0727845663
 F     -0.7309000158    -5.0501882752     6.6936112239
 H      0.6763431867    -3.2883658635     4.9430325289
 F     -0.2332700279    -3.1790195225     4.9822266298
 H      2.2956028005    -4.3871370911     5.8283580904
 F      2.2234462585    -3.7737213926     5.1505648960
 H      0.8221936105    -5.4264436539     7.0159921597
 F      1.7354595910    -5.5084179930     7.0052937193
          8
Energy: -28.279540057497485 Kcal/mole
 H      0.6602883633    -3.3332723048     6.4746528574
 F      1.1426414956    -3.6321201124     7.1950100213
 H      0.8826414335    -1.6520225283     5.2919688935
 F      0.1926729666    -2.2547371844     5.2523764949
 H      2.7744345934    -1.1934673883     6.1051075629
 F      2.2760434083    -0.6988446165     5.5153249418
 H      2.6345804095    -2.9605753819     7.2975410598
 F      3.3390778734    -2.3951874899     7.1397156660
          8
Energy: -28.114873608559208 Kcal/mole
 H      1.4794291102    -1.6064152557     7.2893486870
 F      2.1138105782    -2.2646152889     7.3616111894
 H      0.8993449566     0.0900853003     5.9418960258
 F      0.4583451398    -0.3474682697     6.6163995729
 H      2.5788568292    -0.2916006261     4.6561387828
 F      1.9477763372     0.3701070951     4.5870786322
 H      3.0544127266    -2.0596432659     5.9687596473
 F      3.2944192855    -1.7179289603     5.1523546100
          8
Energy: -28.20386931936949 Kcal/mole
 H      0.5477370573    -1.1244366182     3.8299228597
 F      0.6966729952    -2.0239395271     3.9279106311
 H      1.6757205520     0.6162066806     3.7607521782
 F      0.7904570087     0.5455237975     3.5322759454
 H      3.4089709826    -0.4583718045     4.5363295023
 F      3.1852885537     0.4154380612     4.3710676200
 H      2.3236576368    -2.2560495161     4.4557240753
 F      3.2161536084    -2.1756314366     4.6503336154
          8
Energy: -28.40323236263592 Kcal/mole
 H     -0.6660538204    -2.3905857384     4.0747084679
 F     -0.4793500962    -2.9454915475     4.7804777379
 H      0.1981858143    -1.8742216963     2.2409248322
 F     -0.5196616579    -1.4793657742     2.6528384242
 H      1.9588264703    -3.0900957621     2.7849595891
 F      1.7317132031    -2.7116222089     1.9811770728
 H      1.1616673127    -3.4555585065     4.7339771543
 F      1.9894944899    -3.5854412044     4.3615236009
          8
Energy: -28.53294651829097 Kcal/mole
 H     -0.6077368481    -1.3266564249     4.1367412376
 F     -0.5820076128    -1.8513597891     4.8883484395
 H      0.3327915145    -1.1697619994     2.2890397288
 F     -0.3164002548    -0.6316365866     2.6494007793
 H      1.4942592852    -2.8291288875     2.8383607554
 F      1.5223673179    -2.2917875500     2.0958223891
 H      0.6180176967    -2.9281412757     4.6907616473
 F      1.3200484837    -3.4159812646     4.3590178918
          8
Energy: -28.498796115385232 Kcal/mole
 H     -0.8701254735    -0.8730259780     4.1790754194
 F     -0.1957867617    -0.6321450341     4.7519040784
 H     -0.9042605769    -2.1225749179     2.3641197683
 F     -1.5692624602    -1.7256902323     2.8551839612
 H      1.2404017239    -2.5719115817     2.6358652322
 F      0.6153765110    -2.7241262339     1.9823645184
 H      1.2389868834    -1.3837168383     4.4264615952
 F      1.9259831922    -1.8939635462     4.0969568625
          8
Energy: -28.82448618238888 Kcal/mole
 H     -0.1097175487    -1.4989587635     3.7273932956
 F      0.5212024441    -1.9479857784     4.2185182314
 H     -0.1778650314    -0.2586397553     1.9641148006
 F     -0.8217592294    -0.5137486559     2.5651212154
 H      1.9115460967    -0.4574096385     1.7499431424
 F      1.3185874777    -0.0482709941     1.1825855428
 H      2.0077148085    -1.6511317163     3.5214028154
 F      2.6600920632    -1.3408621564     2.9565791989
          8
Energy: -28.58106835294572 Kcal/mole
 H     -0.1708940109    -2.6212118141     1.8039648030
 F      0.3707505744    -3.2121906016     1.3587073314
 H      0.0374728261    -0.9429919892     3.0914043813
 F     -0.6808923298    -1.4515629633     2.8341184176
 H      2.1633316232    -1.1647371361     3.0543807764
 F      1.6344846410    -0.4827847620     3.3644627478
 H      1.9978347989    -2.8695398155     1.7962546081
 F      2.7082967645    -2.5504234800     2.2802975399
          8
Energy: -28.592573543209795 Kcal/mole
 H     -0.5934805325    -3.2970446563     3.3054830702
 F     -0.1828367880    -4.0121572183     2.9043911371
 H     -0.0311814547    -1.5205801022     4.3054015193
 F     -0.8486528720    -1.8352032852     4.0340314127
 H      2.0180672659    -1.9865282268     3.8163574120
 F      1.6437556498    -1.3938812976     4.4075844676
 H      1.4969657644    -3.6148193311     2.5637915216
 F      2.2966583455    -3.1787833815     2.6698736898
          8
Energy: -28.738531494600835 Kcal/mole
 H     -0.5132188793    -3.3810342125     3.4358212333
 F     -0.0827001582    -3.9653667708     2.8753766846
 H     -0.0359057643    -1.4178479464     4.4080168034
 F     -0.7599502076    -1.9801984420     4.3877544172
 H      1.9151485211    -1.3464264136     3.6300124248
 F      1.4490090681    -0.7568477548     4.1553694610
 H      1.4530074355    -3.3000642122     2.7033062628
 F      2.2041709265    -2.7753037208     2.7389269942
          8
Energy: -28.786397694135616 Kcal/mole
 H     -0.3648104493    -3.2442153478     3.2620470471
 F      0.1300475687    -3.9892945437     3.0599046866
 H     -0.0491243669    -1.1603628695     3.5738667390
 F     -0.8158920877    -1.6580276456     3.5011616286
 H      2.0367954480    -1.4999419163     3.4570670357
 F      1.5547264841    -0.7435255695     3.6476787465
 H      1.7465442868    -3.5499514444     2.9701331738
 F      2.5041398541    -3.0333014093     2.9668624628
          8
Energy: -28.729079174753707 Kcal/mole
 H     -0.4923379136    -3.0510411577     3.7225663718
 F      0.0450181330    -3.7906858497     3.6514101441
 H     -0.1117111935    -1.0076464772     3.7265145076
 F     -0.9142680370    -1.4469196628     3.7884061984
 H      2.0414365495    -1.3393527014     3.7020922488
 F      1.5155071781    -0.5889105783     3.7356171086
 H      1.7012717800    -3.4201781618     3.6139198640
 F      2.4930287767    -2.9586240962     3.6451881042
          8
Energy: -28.810600512134187 Kcal/mole
 H     -0.4147736707    -2.8481968868     3.7350628858
 F     -0.0681206731    -3.6089906713     3.3583487813
 H      0.1367151108    -0.8263944856     4.0512321169
 F     -0.5892467676    -1.3227478604     4.3110429682
 H      1.9912662329    -1.2241108419     3.0767506662
 F      1.6161767085    -0.4461750046     3.3849919379
 H      1.5061420993    -3.2671992870     2.9111604965
 F      2.2960514078    -2.8381799641     2.7298466668
          8
Energy: -28.859795875030215 Kcal/mole
 H     -0.2386425399    -2.8634902509     4.0476301198
 F      0.2164755579    -3.6222044384     3.8065714156
 H      0.0341468368    -0.7041803479     3.9226437458
 F     -0.5923396375    -1.2485782942     4.3125598567
 H      1.8454414016    -0.9774534357     2.7940936436
 F      1.4243554122    -0.2195699102     3.0927374971
 H      1.5601044176    -3.1263971183     2.9389120698
 F      2.1900961062    -2.6128868792     2.5142866977
          8
Energy: -28.89170594799654 Kcal/mole
 H     -0.3841587474    -2.8426046744     3.8674963313
 F      0.0598090337    -3.6122746061     3.6408031344
 H     -0.0695196593    -0.7100964719     3.6300533078
 F     -0.7459930236    -1.2127164149     3.9915031387
 H      1.8152807977    -1.0324486096     2.7356122293
 F      1.3676711204    -0.2557862111     2.9288222070
 H      1.5199663246    -3.1579633379     2.9375384774
 F      2.2096887135    -2.6606166035     2.5942918430
          8
Energy: -28.90962613949577 Kcal/mole
 H     -0.3121261814    -2.8451132000     3.9306588395
 F      0.1487406030    -3.6241188428     3.7835499831
 H     -0.0649235301    -0.7587975514     3.6553652182
 F     -0.7493688663    -1.2438624539     4.0256834895
 H      1.7986167657    -1.1069078387     2.7188874510
 F      1.3540984491    -0.3274572142     2.9079620134
 H      1.5617881191    -3.2142564966     2.9831711443
 F      2.2212119173    -2.7178669959     2.5836129909
          8
Energy: -28.926588388545696 Kcal/mole
 H     -0.3139159652    -2.8500942115     3.9499905411
 F      0.1488355469    -3.6238546116     3.7825244810
 H     -0.0713309919    -0.7543637645     3.6494659898
 F     -0.7490289652    -1.2440976560     4.0259964300
 H      1.8061501210    -1.0986576557     2.7074513712
 F      1.3527021951    -0.3255369609     2.9012511899
 H      1.5565498120    -3.2063616925     2.9842142859
 F      2.2214897974    -2.7182857970     2.5835576547
