          8
Energy: -28.931374640214187 Kcal/mole
 H      5.0635465548    -5.6344658359     5.2209348611
 F      4.8993371213    -5.0764775106     5.9298588984
 H      6.1258324990    -5.5831890910     3.3682465246
 F      5.6285393049    -6.2424200261     3.7669983939
 H      6.7429468155    -3.5754889366     3.7842059468
 F      6.8996595003    -4.1293237725     3.0703452397
 H      5.6901531955    -3.6284609414     5.6388969387
 F      6.1957650061    -2.9733419072     5.2438466281
