          8
Energy: -28.583406838183947 Kcal/mole
 H      2.3734380993    -6.5600108999     5.6804466211
 F      2.2197763031    -7.0045792432     4.8932769822
 H      4.0384351769    -5.4954299176     6.5100909691
 F      3.1940110485    -5.6560631181     6.8295183727
 H      5.0290948829    -5.7577741666     4.5321049437
 F      5.3350685154    -5.5392360881     5.3684722341
 H      3.3540117586    -6.6711662946     3.6766174418
 F      4.0827515501    -6.2883742092     3.2725165440
          8
Energy: -28.43920024670726 Kcal/mole
 H      2.2446738006    -6.3166668690     6.5573050571
 F      2.2255298164    -7.1679842395     6.2170386284
 H      3.1866988058    -4.3646660233     6.3370851025
 F      2.4707933547    -4.6829185453     6.8136181206
 H      4.6843007045    -5.1467421983     5.0832187421
 F      4.5423732835    -4.2747533075     5.3289441608
 H      3.5310920884    -7.0785510933     5.2623622563
 F      4.2999339535    -6.7896823120     4.8545313921
          8
Energy: -28.749637014540838 Kcal/mole
 H      1.9237610171    -6.3355275068     6.6885150047
 F      2.0230814079    -7.1941327459     6.3822120447
 H      2.6877658528    -4.4143308540     6.3388509431
 F      2.1402993835    -4.7208661580     7.0075852493
 H      3.7723451887    -5.0920711783     4.6350916497
 F      3.6965045656    -4.2737278669     5.0418488555
 H      3.0499262298    -7.1241477562     5.0649770834
 F      3.6005451192    -6.7885849143     4.4129759962
          8
Energy: -28.68166047530042 Kcal/mole
 H      1.6589734511    -5.7110031939     6.0394363309
 F      1.2242476916    -6.3000823843     5.4872694888
 H      3.6662141147    -4.8512893087     6.2871014567
 F      2.8737510035    -4.7570743382     6.7387813842
 H      4.3688287532    -6.2304001831     4.7464966666
 F      4.8184875155    -5.5709119223     5.1979069361
 H      2.3531954030    -7.0336941348     4.4865706615
 F      3.1690517448    -7.2012246455     4.1029028919
          8
Energy: -28.75860184836847 Kcal/mole
 H      2.4916568609    -6.5997498996     6.9925738527
 F      2.0459187910    -7.3082611523     6.6181164080
 H      3.7942995394    -5.0539455950     6.3036818245
 F      3.4840917176    -5.2394952047     7.1464341307
 H      3.8043176254    -5.9010412791     4.3639457574
 F      4.1648989427    -5.1357286913     4.7177348989
 H      2.4438667719    -7.4284045814     5.0255733130
 F      2.8137923745    -7.2675683939     4.2020590330
          8
Energy: -28.61864714583271 Kcal/mole
 H      2.3280347470    -6.3202008093     6.4132270233
 F      1.9930295833    -7.1147434364     6.1011972910
 H      3.2125559571    -4.5352583821     5.8324162439
 F      2.9941885324    -4.8728069783     6.6565919612
 H      3.2036608905    -5.3128682682     3.7851096085
 F      3.4506565430    -4.5164031342     4.1665875738
 H      2.4495841020    -7.1511520344     4.5182705965
 F      2.7465818764    -6.9408471799     3.6765739824
          8
Energy: -28.545099842362873 Kcal/mole
 H      1.1631699568    -4.7568426256     6.3317287199
 F      0.5183713796    -5.0570298254     5.7529269923
 H      3.3325289841    -4.4942862777     6.1911832110
 F      2.7159481998    -4.3022472424     6.8422117398
 H      3.4408492135    -5.4600647405     4.4108478298
 F      4.1056262118    -5.0049530627     4.8488363037
 H      1.3375588128    -5.7616515837     4.4293846526
 F      1.9930098396    -5.9816347956     3.8269891530
          8
Energy: -28.688319006881784 Kcal/mole
 H      1.2942046229    -4.4316427886     6.4349048730
 F      0.5449115184    -4.7524741974     6.0147667401
 H      3.4274872349    -4.8175825129     6.4043629219
 F      2.8696058999    -4.3120641630     6.9279167528
 H      3.2822848365    -6.3013296473     4.9637950736
 F      4.0425543530    -5.9344595050     5.3219648112
 H      1.1496617199    -5.9674724936     4.9907111178
 F      1.6847438852    -6.5589126139     4.5381907752
          8
Energy: -28.81648990361157 Kcal/mole
 H      2.0732358496    -4.9406288029     6.7304789161
 F      1.3773570847    -5.5377772378     6.7379281533
 H      3.6103671425    -4.2696400956     5.4402595699
 F      3.3838962410    -4.0392269123     6.2984610006
 H      2.8627055522    -5.5960875008     3.9309102777
 F      3.5572304775    -4.9979356789     3.9580861155
 H      1.3471078255    -6.2966205565     5.2484885184
 F      1.5948643716    -6.5545128223     4.4040968597
          8
Energy: -28.78186782872106 Kcal/mole
 H      1.7110199225    -4.1193904258     6.2689612080
 F      0.9851438232    -4.6797280770     6.2651395367
 H      3.7796441338    -4.1668523532     5.7900577575
 F      3.2500484925    -3.5133631015     6.1552553132
 H      3.4886873272    -6.2915107920     5.1154848776
 F      4.2024456722    -5.7161927452     5.1366312716
 H      1.4486058975    -6.1628272800     5.6962049444
 F      1.9302194693    -6.8758360665     5.3790995394
          8
Energy: -28.60439844251391 Kcal/mole
 H      1.5771061998    -4.1619264858     5.0006459132
 F      0.9547145299    -4.5877578152     4.4789321140
 H      3.4872050017    -4.6156886589     5.9220065257
 F      3.0033816350    -3.8400133662     5.8503700111
 H      3.4722129133    -6.6066840471     5.3192415040
 F      4.0484213200    -6.1340362613     5.8535419276
 H      1.5718224971    -6.0880258399     4.3577874938
 F      2.0331410040    -6.8781156688     4.4196930458
          8
Energy: -28.6812024412462 Kcal/mole
 H      2.1151074770    -4.1245838983     4.3634630281
 F      1.4974058770    -4.5858107276     3.8668710977
 H      3.9759148898    -4.6553750912     5.3339532068
 F      3.5002827798    -3.8719927688     5.3027244904
 H      3.7137267334    -6.6658456875     4.7244580802
 F      4.4511658517    -6.2341797779     5.0572299078
 H      1.8448888063    -6.1977680703     3.9767137592
 F      2.2553292917    -7.0129386849     4.0657332899
          8
Energy: -28.81563114108721 Kcal/mole
 H      1.7170338791    -5.0110891570     5.3868343355
 F      1.2974456705    -5.5664861778     4.7898679340
 H      3.6893664818    -4.8823934297     6.2685940368
 F      2.9307156804    -4.3760835803     6.3634006714
 H      4.2660413532    -6.6353327601     5.1788770694
 F      4.7631408640    -6.0739946079     5.7067791013
 H      2.3297831428    -6.8655749497     4.3690791802
 F      3.0693528056    -7.4065514031     4.3334394474
          8
Energy: -28.693724488525135 Kcal/mole
 H      1.8680205477    -5.7239573527     5.5998869880
 F      1.5058005772    -5.8341423593     4.7646954187
 H      3.6159707693    -6.3556151673     6.5390052377
 F      2.9049132983    -5.8958499689     6.8910027309
 H      4.2873260369    -7.2937296748     4.6326691492
 F      4.6635939862    -7.2027973085     5.4639589513
 H      2.4486545300    -6.7702489317     3.6959152374
 F      3.1835367138    -7.2029446169     3.3588520090
          8
Energy: -28.65710699698832 Kcal/mole
 H      2.7329814186    -4.6999468073     5.5647016349
 F      2.3855859419    -4.7871717561     4.7205469150
 H      4.2006100043    -5.7152197559     6.6348197935
 F      3.7201346441    -4.9856658719     6.9137168329
 H      4.4508468532    -6.9942330295     4.8630065904
 F      4.8353402648    -6.9724384696     5.6952197924
 H      2.9941934573    -6.0338568679     3.8371073993
 F      3.4786689026    -6.7511674444     3.5343895774
          8
Energy: -28.77913204946165 Kcal/mole
 H      3.1746573417    -4.2893816914     5.2262387030
 F      2.5443014724    -4.3667990581     4.5647653253
 H      4.6304547929    -5.5103863266     6.1986437726
 F      4.3481004435    -4.6472173130     6.3255463943
 H      4.0427515486    -7.1130611131     4.8739436102
 F      4.7120520178    -7.0433455902     5.4968927476
 H      2.5071373960    -5.9671121260     4.0409547071
 F      2.7382479619    -6.8394307114     3.8780523070
          8
Energy: -28.825265160570382 Kcal/mole
 H      3.9414304010    -4.2653787302     5.1299389267
 F      3.4742376321    -4.2343487352     4.3414866098
 H      5.3866943580    -5.5145688832     6.1442646407
 F      4.9781094716    -4.7252455879     6.3699106600
 H      5.3421338118    -6.8407137103     4.4086438122
 F      5.7323112505    -6.9084998285     5.2357203556
 H      3.9443022248    -5.5557237208     3.4276313908
 F      4.4039467899    -6.2895938441     3.1258856108
          8
Energy: -28.444766031433716 Kcal/mole
 H      3.8162786184    -4.7912405531     5.5910969837
 F      3.2673561325    -4.8680563701     4.8605681104
 H      5.7384010971    -5.5157321080     6.0525502515
 F      5.1698877080    -5.0650048849     6.6133768706
 H      5.9455164504    -6.4760718503     4.1837612702
 F      6.5521484911    -6.3186012723     4.8531562092
 H      4.0239346362    -5.8771530193     3.6477789605
 F      4.5749533598    -6.4817637404     3.2333959949
          8
Energy: -28.684616255552555 Kcal/mole
 H      3.9078775314    -5.6184616615     6.1020280926
 F      3.1694176836    -5.7380625386     5.5716869916
 H      6.0127979491    -5.3347650887     5.9162592149
 F      5.4699542016    -5.4131242026     6.6511534353
 H      5.9843455944    -5.4565377609     3.8029349001
 F      6.6370804585    -5.2272678731     4.4048165461
 H      3.7985247722    -5.9092204007     4.0663954557
 F      4.3790136354    -5.9329260064     3.3569169684
          8
Energy: -28.714938668342853 Kcal/mole
 H      3.9615221543    -6.3714157739     5.5840183916
 F      3.4240060752    -6.6868168101     4.9113463682
 H      5.6246146218    -5.1491703638     5.9529952347
 F      5.1105409296    -5.6453971581     6.5277788529
 H      5.5453107225    -4.6790473385     3.7407879641
 F      6.0660254635    -4.4179011751     4.4489883876
 H      3.8757108986    -5.9447000234     3.5053289116
 F      4.3187877710    -5.4622453920     2.8636051285
          8
Energy: -28.741361307559828 Kcal/mole
 H      3.8356572993    -6.5034974594     5.8024770749
 F      3.2515762563    -6.6404184009     5.1089419345
 H      5.7449137271    -5.5228248393     5.9783702141
 F      5.2088296442    -5.9210206474     6.6068150841
 H      5.7182424602    -4.9646587627     3.9314604273
 F      6.3465325315    -4.8817813022     4.5942363418
 H      3.8095990051    -5.8811757723     3.7071686649
 F      4.2715781257    -5.3579992320     3.1123992979
          8
Energy: -28.631180408372757 Kcal/mole
 H      3.9691265492    -5.5838421809     5.8807490912
 F      3.2387958951    -5.4213337666     5.3505631323
 H      6.0261664333    -6.0046769038     5.8561820694
 F      5.4343347655    -5.8551869592     6.5404897731
 H      5.8595596840    -6.2241428878     3.7274685382
 F      6.5769349915    -6.1901639536     4.2976501760
 H      3.7287122913    -5.7939254339     3.8100289787
 F      4.2941687552    -6.0631853051     3.1402177299
          8
Energy: -28.75396823969666 Kcal/mole
 H      3.7848882709    -5.4025184874     5.6558040447
 F      3.1815251822    -5.7406598209     5.0537223046
 H      5.9712043846    -5.3104731853     5.9649652167
 F      5.2370523511    -5.0590207818     6.4535156036
 H      6.1862207777    -6.2358006649     4.0419457515
 F      6.8054147933    -5.9379024697     4.6491890606
 H      4.0687498645    -6.4070297242     3.7540526051
 F      4.7897024017    -6.6494413478     3.2418485014
          8
Energy: -28.748534637966685 Kcal/mole
 H      3.7776909551    -6.2178924274     5.7367953878
 F      3.2253097315    -5.9587205507     5.0522561836
 H      5.9408398781    -6.4188241799     6.0825626532
 F      5.1958878275    -6.4725346178     6.6145876818
 H      6.4227147888    -5.9169255184     4.0818215086
 F      6.9464689915    -6.1823971561     4.7861618700
 H      4.2781218065    -5.5871695631     3.7990833709
 F      5.0204391769    -5.4737558411     3.2727837897
          8
Energy: -28.82567101264317 Kcal/mole
 H      3.8798470244    -5.9235173186     6.0083645171
 F      3.4859978931    -5.2493060260     5.5275204730
 H      5.7242803624    -6.9906024290     5.9494132774
 F      5.0096072059    -7.0732564551     6.5180076770
 H      6.2389968349    -5.9180400597     4.1623715298
 F      6.6998753969    -6.5011655892     4.6994418865
 H      4.4209418850    -4.8170865480     4.2040663784
 F      5.1070053276    -4.8059505072     3.5957227737
          8
Energy: -28.724422297849173 Kcal/mole
 H      4.9366371477    -5.3204924092     6.8475990923
 F      4.6501521527    -4.5285375910     6.4848003691
 H      6.2258793707    -6.9385594612     6.2001193519
 F      5.6827150009    -6.8555116226     6.9342613844
 H      6.4866682012    -5.8346896237     4.2977494039
 F      6.8772575985    -6.5798055954     4.6626207668
 H      5.1046234922    -4.3493430921     4.8847540463
 F      5.5426317656    -4.4788757447     4.0896068622
          8
Energy: -28.75653195409987 Kcal/mole
 H      4.7059778085    -5.6251997181     6.7258308928
 F      4.5993538760    -4.7165396584     6.6637242678
 H      5.9578371061    -7.0952296275     5.8601320752
 F      5.2456479099    -7.1998164926     6.4282316585
 H      7.0352461695    -5.5886155490     4.7487458546
 F      7.1052246856    -6.5027640195     4.7667619894
 H      5.8142739539    -4.0973095100     5.7287509340
 F      6.5366274360    -4.0349787566     5.1673158763
          8
Energy: -28.773311049025835 Kcal/mole
 H      4.8885659461    -5.3369939102     6.4772184851
 F      4.9989035177    -4.4266563276     6.4768928901
 H      5.8354384952    -6.9690251933     5.5023288374
 F      5.1302906249    -6.9639374950     6.0885281177
 H      7.2740632366    -5.6403911532     4.5918647291
 F      7.1011650759    -6.5355659139     4.4935927908
 H      6.3405249854    -4.0264965082     5.6257789480
 F      7.1269792099    -4.0681711131     5.1560535175
          8
Energy: -28.69871004423021 Kcal/mole
 H      4.8947476439    -5.2581552485     6.3828391145
 F      5.0092389269    -4.3486706699     6.3579685023
 H      5.8350834516    -7.1156045989     5.8663880709
 F      5.0456174872    -6.9192770332     6.2895759465
 H      7.4952957269    -6.1397894055     4.9795422021
 F      7.3192372407    -7.0339609031     5.0812758857
 H      6.4752617623    -4.2513836364     5.5427027089
 F      7.2230973537    -4.4579015932     5.0538456114
          8
Energy: -28.76255448439059 Kcal/mole
 H      5.0820381993    -5.2376866177     6.8265166844
 F      5.1949199404    -4.3537930281     6.6100014779
 H      5.8937547889    -7.1308521918     6.1609592478
 F      5.2507589931    -6.9214916522     6.7803247063
 H      7.2135761997    -6.1571459144     4.7640402028
 F      7.0068777353    -7.0313831672     4.9480890298
 H      6.4538746527    -4.2576116949     5.4486103142
 F      7.1226173579    -4.4787113070     4.8614245210
          8
Energy: -28.776870812346942 Kcal/mole
 H      4.9427442162    -5.6514133005     7.1900814539
 F      5.3012601334    -4.8377523293     7.4143829498
 H      5.4556721562    -7.1627670174     5.7672393447
 F      4.8129661765    -7.1397968619     6.4209138781
 H      7.1805948751    -6.0491600315     5.1724975071
 F      6.7999645898    -6.8102565810     4.8308227667
 H      6.7625096481    -4.6038206691     6.6626702510
 F      7.4598772781    -4.6974470555     6.0746213684
          8
Energy: -28.81626152110718 Kcal/mole
 H      4.6956722558    -5.5031785428     7.2612165813
 F      4.7513577318    -4.6256069536     7.0011084623
 H      5.5661933783    -7.4145752088     6.8355423831
 F      4.8713131641    -7.1594957864     7.3768047743
 H      7.0647892263    -6.4509756881     5.6378144034
 F      6.8904256166    -7.3376470670     5.7936996095
 H      6.1279162494    -4.5597364608     6.0506317456
 F      6.9007526775    -4.7940068254     5.6162007940
          8
Energy: -28.759404691348465 Kcal/mole
 H      4.8752870807    -5.6029995953     7.2500979539
 F      5.0117276104    -4.6963912134     7.2318161695
 H      5.8594015596    -7.3789407153     6.6004819409
 F      5.0834985594    -7.2608415529     7.0747351667
 H      7.4197191874    -6.2270983106     5.7722254422
 F      7.3035053840    -7.1366180898     5.7847603216
 H      6.4490045037    -4.4186712905     6.3620249845
 F      7.1996935422    -4.5486766685     5.8516784659
          8
Energy: -28.78529251365927 Kcal/mole
 H      4.8369536215    -5.7674091379     7.2733975187
 F      4.9934537513    -4.8752432346     7.4163545412
 H      5.6640921757    -7.4090850579     6.3125354880
 F      4.8736131395    -7.3367516829     6.7716648556
 H      7.2534934199    -6.0787151298     5.6541611326
 F      7.1168029457    -6.9835171961     5.5946805890
 H      6.3490363579    -4.4530211205     6.6067173338
 F      7.1167668632    -4.4743717528     6.1056953566
          8
Energy: -28.85924444889295 Kcal/mole
 H      4.3650453724    -5.7699056914     6.5083923507
 F      4.5464519899    -4.9508117989     6.8786163836
 H      5.1540565679    -7.2072869281     5.1460552668
 F      4.3927284491    -7.1963187243     5.6570818746
 H      6.8362070943    -5.8472846833     4.7984101631
 F      6.6093956296    -6.6689590026     4.4603319584
 H      6.0120798312    -4.4408247537     6.1971884282
 F      6.7806458125    -4.4135359794     5.6977380751
          8
Energy: -28.810810355577757 Kcal/mole
 H      4.3118509244    -5.2803919926     6.0675032520
 F      4.5651484821    -4.4302029895     6.2996842295
 H      5.3742880686    -7.0975828758     5.3924590691
 F      4.4958770346    -6.8958095496     5.5614874103
 H      7.2171902021    -6.0634009868     5.3506411385
 F      7.0176112153    -6.9387638302     5.1641012760
 H      6.1843924651    -4.3074140198     6.0294596817
 F      7.0523524865    -4.4763207833     5.7865504259
          8
Energy: -28.89681828695987 Kcal/mole
 H      4.3422786847    -5.0343142782     5.1598759035
 F      4.6072406766    -4.2521918006     5.5585845351
 H      5.2348060053    -6.8040723835     4.3243190292
 F      4.3622140535    -6.5476278321     4.4414022378
 H      7.1670499279    -6.0057694827     4.7229515978
 F      6.9061343405    -6.7931197313     4.3319379890
 H      6.2807743046    -4.2320040869     5.5735804665
 F      7.1479687356    -4.4886162132     5.4218799870
          8
Energy: -28.846820760642743 Kcal/mole
 H      4.4737002282    -5.0522696981     5.6863855544
 F      4.8827748622    -4.2809430271     5.9667462334
 H      4.9425557694    -6.8778238278     4.6635009925
 F      4.1609138492    -6.5345860758     4.9983334193
 H      6.9422197331    -6.2138672661     4.4945391626
 F      6.5267119119    -6.9864935711     4.2275357104
 H      6.4767733512    -4.4181306335     5.5315188323
 F      7.2715803209    -4.7369965883     5.2036539457
          8
Energy: -28.786230631154098 Kcal/mole
 H      4.5216914853    -5.3383776433     6.0040755696
 F      4.9473610450    -4.6071074712     6.3575417792
 H      5.1117447097    -7.1668895007     4.9644401899
 F      4.2987519989    -6.8543563982     5.2512413614
 H      7.1249288884    -6.4760966191     4.9539087383
 F      6.7419779986    -7.2547590594     4.6573915884
 H      6.5812525336    -4.6129455613     5.9370743424
 F      7.3630004789    -4.9258672845     5.5739777365
          8
Energy: -28.791124438416233 Kcal/mole
 H      4.5883919803    -5.5940566558     6.0385582827
 F      4.9468458381    -4.8420459841     6.4218072639
 H      5.3002972612    -7.1909580826     4.7563500673
 F      4.4811918041    -7.0008883817     5.1221761996
 H      7.2451228328    -6.2585908364     4.6684294200
 F      6.9554118995    -7.0740115608     4.3650392134
 H      6.5395645342    -4.6758526722     5.8518367352
 F      7.3577422499    -4.8099943522     5.4600711993
          8
Energy: -28.82170311471353 Kcal/mole
 H      4.9225378333    -5.8217186253     6.4349287781
 F      5.1259172136    -4.9649247386     6.6907217868
 H      5.7597186275    -7.2934970734     5.1565610665
 F      4.9966378008    -7.3115699216     5.6647638056
 H      7.3913299915    -5.9813082506     4.5878714053
 F      7.1373711465    -6.8198373077     4.3172001557
 H      6.5662963590    -4.5168434735     5.9748296776
 F      7.3272848870    -4.5308336923     5.4633712395
          8
Energy: -28.849801504364223 Kcal/mole
 H      5.0399196157    -6.0380592371     6.7230040051
 F      5.3059082127    -5.2867153762     7.1764590403
 H      5.7858418175    -7.1589937000     5.0191208389
 F      5.0768091733    -7.2766124059     5.5886184680
 H      7.3687539185    -5.7835816130     4.7380059881
 F      7.1555146509    -6.5533810848     4.2876430368
 H      6.6828908050    -4.6827226122     6.4475315992
 F      7.4081440268    -4.5588622510     5.9002150772
          8
Energy: -28.82729341169619 Kcal/mole
 H      4.8956887871    -5.9647127636     6.3902037978
 F      5.2059869924    -5.3217743457     6.9657333058
 H      5.5546978950    -7.1311108356     4.7372225136
 F      4.7794619818    -7.1536985902     5.2264955174
 H      7.3340964382    -5.9315157621     4.7018093483
 F      7.0556899025    -6.6377850571     4.1874529701
 H      6.6791558002    -4.7852847139     6.3821904351
 F      7.4450110655    -4.7287985899     5.8810277565
          8
Energy: -28.843496460285365 Kcal/mole
 H      4.9471130020    -5.9074163320     6.4541751374
 F      5.2379959638    -5.1417889628     6.8665958377
 H      5.5863588014    -7.1681079779     4.8707188505
 F      4.8493195386    -7.1801431983     5.4161702952
 H      7.3706513684    -5.9891006816     4.6020437413
 F      7.0482860049    -6.7370697784     4.1807222458
 H      6.7078706543    -4.6820617926     6.1733541549
 F      7.4817763575    -4.6885338554     5.6815034915
          8
Energy: -28.809064678017904 Kcal/mole
 H      5.0062916393    -5.8164806092     6.3619067702
 F      5.2248634819    -4.9868989315     6.6858042688
 H      5.8125037078    -7.2251742666     4.9814349931
 F      5.0394447747    -7.2653696616     5.4730173526
 H      7.4353917856    -5.8258382764     4.5523326893
 F      7.2661115442    -6.6777751891     4.2583315048
 H      6.6271386459    -4.4766247721     5.9378090417
 F      7.3597645404    -4.4119472345     5.3901183309
          8
Energy: -28.81359481104505 Kcal/mole
 H      5.2801451937    -6.0396510454     6.6417586142
 F      5.5228818275    -5.2696755452     7.0766214151
 H      5.7905635943    -7.1557969985     4.8231716379
 F      5.1499456951    -7.2922908021     5.4649404038
 H      7.2547482595    -5.6895825727     4.3280973889
 F      7.0290699589    -6.4853366208     3.9322011910
 H      6.6720943143    -4.5739412655     6.0703743839
 F      7.2585597709    -4.3950583437     5.3885033049
          8
Energy: -28.8461431687451 Kcal/mole
 H      5.3780313239    -6.2245229919     6.4845099174
 F      5.6630839774    -5.5268910609     7.0069500322
 H      5.5631764170    -6.9700098905     4.5041490988
 F      5.0717337107    -7.2495166850     5.2261248728
 H      6.9459400903    -5.4138387306     4.0831519582
 F      6.6475672674    -6.1170749851     3.5758833620
 H      6.7035918117    -4.6194068682     6.0297355619
 F      7.1746287116    -4.3267651910     5.2994109165
          8
Energy: -28.869064962230198 Kcal/mole
 H      5.5436735323    -6.2225331105     6.5622126704
 F      5.8541066332    -5.5143401748     7.0551457852
 H      5.6715090117    -7.0024516788     4.5855270755
 F      5.2139309508    -7.2738936734     5.3324076293
 H      6.9155483635    -5.3263152130     4.0795678833
 F      6.6662514673    -6.0694266228     3.6036209428
 H      6.7321976808    -4.5366987062     6.0260980006
 F      7.1197434668    -4.1825947004     5.2742285858
          8
Energy: -28.88631366649642 Kcal/mole
 H      5.3794354446    -6.1516930345     6.5871735719
 F      5.7192244921    -5.4695543867     7.0971924621
 H      5.5882783255    -6.8923088357     4.6157552506
 F      5.0761537846    -7.1841085409     5.3182297246
 H      6.9960144589    -5.3551434176     4.1511168940
 F      6.6344166411    -6.0270937704     3.6425711818
 H      6.7958841438    -4.5957366662     6.1275194129
 F      7.3063168293    -4.2996225623     5.4256191985
          8
Energy: -28.83253758492981 Kcal/mole
 H      5.3654025689    -5.9838834129     6.5308892868
 F      5.7302304493    -5.3177171315     7.0447103677
 H      5.4558140332    -6.7169687388     4.5252637427
 F      4.9692252600    -6.9782754559     5.2572741014
 H      7.0240682284    -5.2662316942     4.1113403995
 F      6.5818460411    -5.8702163022     3.5816885040
 H      6.8653002685    -4.4781346793     6.1155864489
 F      7.4255743364    -4.2671900442     5.4209755292
          8
Energy: -28.8580294404683 Kcal/mole
 H      5.4181075102    -6.0493378186     6.5461099489
 F      5.8568773193    -5.4717654149     7.1071626853
 H      5.4088746361    -6.6743659677     4.4984748231
 F      4.8749498603    -6.9010492653     5.2087057830
 H      6.9720976716    -5.2429625279     4.1207035832
 F      6.5855743842    -5.8764219663     3.5819848363
 H      6.9131734297    -4.5838178093     6.1244169169
 F      7.3953165004    -4.2970785993     5.3990151766
          8
Energy: -28.886623835834456 Kcal/mole
 H      5.3236564884    -5.9928623509     6.4565257606
 F      5.7591504176    -5.3862964412     6.9887962134
 H      5.2550030245    -6.5962623272     4.4146717131
 F      4.7979835244    -6.8900317167     5.1534015164
 H      6.8352704208    -5.1857747185     3.9495662496
 F      6.3458706701    -5.7588135439     3.4270689878
 H      6.9355268598    -4.6141620947     6.0385884243
 F      7.4364682207    -4.3670406737     5.3113486040
          8
Energy: -28.871317278020825 Kcal/mole
 H      5.1698844439    -5.8471502523     6.4218184217
 F      5.6261478444    -5.2347116178     6.9293926806
 H      5.1382304943    -6.4785606093     4.3621189762
 F      4.6907949979    -6.7964183795     5.0967324218
 H      6.6344975613    -5.0002154508     3.8827809813
 F      6.1580270869    -5.6026663477     3.3818640182
 H      6.7407616960    -4.4308140016     5.9547379897
 F      7.1967043776    -4.1344760647     5.2163687743
          8
Energy: -28.85123718468344 Kcal/mole
 H      4.9725564758    -5.6090404019     6.2758521074
 F      5.3527677797    -4.9369670590     6.7704689148
 H      5.2242861650    -6.4644608846     4.3219557574
 F      4.6533791276    -6.6602858299     5.0123228666
 H      6.8196999414    -5.0866930407     3.9014352161
 F      6.4554914905    -5.7595194333     3.3959197864
 H      6.5639566256    -4.2627738780     5.8533554044
 F      7.1882703940    -4.0922495631     5.2037072099
          8
Energy: -28.906891011698292 Kcal/mole
 H      4.9959493440    -5.6186628540     6.3300203055
 F      5.4293011664    -5.0131640736     6.8652458888
 H      5.1693484134    -6.3958063664     4.3081662488
 F      4.5778309597    -6.5665428374     4.9877581554
 H      6.8491101740    -5.1457651278     3.9334934518
 F      6.4346190026    -5.7699497093     3.4048350773
 H      6.6728810606    -4.3705872403     5.9438118951
 F      7.2339975389    -4.1684629863     5.2472610472
          8
Energy: -28.89902766572422 Kcal/mole
 H      5.0080347270    -5.5304630848     6.2453264360
 F      5.4216863810    -4.9064603525     6.7748563212
 H      5.2012422831    -6.4019453703     4.3009161834
 F      4.6088706549    -6.5371078712     4.9877319901
 H      6.9111600145    -5.1763404899     3.9069521548
 F      6.4869910348    -5.8147871675     3.4036078228
 H      6.6973359053    -4.3277839910     5.8857345971
 F      7.3118463162    -4.1785590929     5.2216578811
          8
Energy: -28.904439586504594 Kcal/mole
 H      5.0120575477    -5.5517518169     6.2695846044
 F      5.4149111794    -4.8962783108     6.7685359390
 H      5.2133820441    -6.4401336183     4.3497723032
 F      4.6090451951    -6.5834385607     5.0244052897
 H      6.9172393789    -5.2350044433     3.9182394703
 F      6.4928217990    -5.8863806914     3.4319600226
 H      6.6834178590    -4.2922846194     5.8607488279
 F      7.2702138523    -4.1560068895     5.1693821795
          8
Energy: -28.914706925013974 Kcal/mole
 H      4.9815330565    -5.4971707527     6.2357970333
 F      5.3656670693    -4.8192322779     6.7192528064
 H      5.2429371375    -6.4950535481     4.3601933797
 F      4.6467428081    -6.6235962713     5.0449693211
 H      6.9080216184    -5.2714783536     3.9096487709
 F      6.4912039765    -5.9229575900     3.4169755953
 H      6.6630397540    -4.2780689455     5.8192395928
 F      7.2725241749    -4.1855748297     5.1403709905
          8
Energy: -28.886322124220584 Kcal/mole
 H      4.9482289008    -5.4961872833     6.2129843266
 F      5.3480301229    -4.8141622853     6.6776238480
 H      5.2215867559    -6.5034937782     4.3242185209
 F      4.6436708032    -6.6278350313     5.0252473395
 H      6.9041518508    -5.2247797710     3.8760527282
 F      6.4969435017    -5.8957240488     3.4018121388
 H      6.6166782629    -4.2367036969     5.7573590366
 F      7.2391626099    -4.1267292176     5.0930489798
          8
Energy: -28.92322286893497 Kcal/mole
 H      5.0250153700    -5.5628766329     6.2151345303
 F      5.4428879902    -4.9203209048     6.7185167008
 H      5.2196251733    -6.4837818655     4.2984058821
 F      4.6246558426    -6.6230968416     4.9821396263
 H      6.9264195872    -5.2630845464     3.8945808328
 F      6.5115850362    -5.9130139866     3.3982009197
 H      6.7142658087    -4.3352865739     5.8076098150
 F      7.3142320950    -4.1984758798     5.1277478516
          8
Energy: -28.910196158812454 Kcal/mole
 H      5.0034136094    -5.5513053090     6.2295912946
 F      5.4712578747    -4.9428062467     6.7313279135
 H      5.1504850994    -6.4102440769     4.2833557335
 F      4.5388608038    -6.5297508773     4.9560539168
 H      6.9003022344    -5.2399274842     3.9173820869
 F      6.4635243122    -5.8601524773     3.4021782392
 H      6.7288026534    -4.3495569599     5.8295171420
 F      7.3317123098    -4.2068005443     5.1534923259
          8
Energy: -28.920786434358178 Kcal/mole
 H      4.9691344809    -5.5065397310     6.2156087203
 F      5.3968765926    -4.8767489673     6.7267733511
 H      5.1711185063    -6.4051033157     4.2907664471
 F      4.5634735027    -6.5255886005     4.9668876239
 H      6.9022691412    -5.2240505893     3.8919400117
 F      6.4708267350    -5.8587830296     3.3900822835
 H      6.7056534483    -4.3125928087     5.8372414008
 F      7.3017328999    -4.1902547401     5.1512299692
          8
Energy: -28.924123711052772 Kcal/mole
 H      4.9627107821    -5.5105696043     6.2261222401
 F      5.3972173550    -4.8765351918     6.7262156332
 H      5.1703880238    -6.4254091556     4.2877367705
 F      4.5649387783    -6.5420136661     4.9665030037
 H      6.8786543083    -5.2014725282     3.8834153383
 F      6.4623043173    -5.8440919875     3.3788542265
 H      6.6761777300    -4.3059531148     5.8175713366
 F      7.2779123027    -4.1730580526     5.1384959310
          8
Energy: -28.92283036627873 Kcal/mole
 H      4.9822330369    -5.5143720652     6.2173152008
 F      5.3990851188    -4.8751114286     6.7257138439
 H      5.1802042829    -6.4207731683     4.2866197237
 F      4.5721843859    -6.5334094821     4.9637562430
 H      6.8936919600    -5.2118689051     3.8896142317
 F      6.4769827166    -5.8561975861     3.3875355951
 H      6.6733582652    -4.3065526473     5.8149438609
 F      7.2780618688    -4.1730262488     5.1386353125
          8
Energy: -28.92963628768038 Kcal/mole
 H      4.9818949428    -5.5047046304     6.2268595389
 F      5.4102190804    -4.8692022142     6.7304110378
 H      5.1808787700    -6.4147434597     4.2882590730
 F      4.5721486060    -6.5337293442     4.9636692793
 H      6.8986759611    -5.2151743667     3.8896821297
 F      6.4767183269    -5.8560222390     3.3875319933
 H      6.6917050065    -4.2963870061     5.8226331707
 F      7.2928523115    -4.1692439582     5.1419382589
