          8
Energy: -0.5429336452025879 Kcal/mole
 H      4.7079042236     3.5466553422     4.1567356262
 F      4.9796365737     4.4224695519     4.1567356262
 H      2.3237273230     0.1631545306    -1.4919233191
 F      1.5192844714     0.1631545306    -1.0517407452
 H      5.1141594098     4.4666143044    -5.5506721953
 F      5.1544395517     4.4666143044    -4.6345572953
 H     -2.3026369327     4.0494601478    -3.4578091741
 F     -1.8776947172     4.0494601478    -4.2704056997
