          8
Energy: -28.20632730539009 Kcal/mole
 H      0.1873842966    -4.3015638909     4.0190856084
 F      0.8532393047    -4.9040120644     4.2050487942
 H     -0.1461989285    -3.0855125523     2.3847657527
 F     -0.6269980678    -3.0630275987     3.1652884074
 H      1.4908478326    -4.0735303809     1.3733028892
 F      0.8911433198    -3.4404927171     1.0895656631
 H      2.0122119930    -5.2054450205     3.0457891218
 F      2.4016009942    -5.0949667784     2.2229527081
          8
Energy: -28.444293692434712 Kcal/mole
 H     -1.2944330087    -3.4234617668     5.9519971093
 F     -1.3907305700    -4.3109646168     5.7423438933
 H     -0.4394222962    -1.6523151760     5.1957221144
 F     -0.9579370690    -1.7782627081     5.9414892695
 H      0.3616773465    -2.9837089687     3.6215331479
 F      0.4783163513    -2.0888104194     3.7841398174
 H     -0.5076496207    -4.6295631270     4.3942914339
 F      0.0645935878    -4.6221826646     3.6777914415
          8
Energy: -27.99694847905124 Kcal/mole
 H     -1.8640669613    -3.0690002054     3.9620460693
 F     -2.1522056966    -3.8766263509     4.2870154192
 H     -0.0640648801    -2.2890599569     2.8612246665
 F     -0.8171016280    -1.8615809147     3.1630297770
 H      0.3894496164    -4.3163043550     2.3546857182
 F      0.8775204879    -3.5487598802     2.2382756517
 H     -1.2807013390    -4.9341902202     3.4337933246
 F     -0.8041540368    -5.3914544257     2.7976320911
          8
Energy: -28.29640839523796 Kcal/mole
 H      1.7243214497    -4.2786561391     6.2652887329
 F      1.2019529656    -4.7481473939     6.8548632645
 H      1.5875613073    -3.4372236686     4.2156247991
 F      2.1982749108    -3.4154335572     4.8993228944
 H     -0.5511464273    -3.9621892430     4.2060866151
 F     -0.0133104740    -3.6923019435     3.5141456255
 H     -0.2955271064    -4.7601645450     6.2571538110
 F     -1.0031081644    -4.5630998425     5.7081697042
          8
Energy: -28.148017092411607 Kcal/mole
 H      2.1917028198    -6.4097250739     6.4184550934
 F      1.5731192245    -6.4828292676     7.0914328884
 H      2.0459011035    -5.3125033358     4.5284236755
 F      2.6742552625    -5.8852813959     4.8719136241
 H      0.2095042627    -4.3703701853     4.9563588391
 F      0.7820427777    -4.2671030560     4.2475397163
 H      0.1206304095    -5.6986651361     6.6442314569
 F     -0.4540633360    -5.0525944367     6.3389303756
          8
Energy: -28.281997697614287 Kcal/mole
 H      2.2167093809    -6.7076804974     5.2436401714
 F      1.3636797345    -6.4557602392     5.4667222322
 H      4.2194543902    -5.8991764872     5.0053418727
 F      3.8443093577    -6.7358668946     5.0155578754
 H      3.5072062304    -3.9566212820     5.6413237800
 F      4.2972100109    -4.2603016041     5.2883913663
 H      1.5866019413    -4.8375646658     6.1156209466
 F      1.9728029251    -4.0161655520     6.2461632612
          8
Energy: -28.42127291627628 Kcal/mole
 H      1.4384973795    -6.9436164937     5.6840234001
 F      0.6085723501    -6.5546239732     5.7122769752
 H      3.2765821568    -6.4757442820     6.5035661525
 F      2.9948749512    -7.2540261328     6.1088416777
 H      2.5324036606    -4.6991219224     7.4555305985
 F      3.3728705277    -5.0452393851     7.3342575701
 H      0.5719674270    -5.2927402599     6.8432705524
 F      0.8629398167    -4.6738036993     7.4541237283
          8
Energy: -28.314949029415487 Kcal/mole
 H      3.3670423463    -7.3154235943     4.0902212305
 F      2.7488199057    -7.1126383543     3.4440260893
 H      3.8565667430    -6.5691644229     5.9457298869
 F      4.2856343383    -7.2139909729     5.4548238683
 H      2.2379205085    -5.1575740672     5.7456999684
 F      2.7682753102    -5.4945226550     6.4135910026
 H      1.8932195178    -5.7643751348     3.8183563194
 F      1.5825658523    -4.9953034150     4.2093959465
          8
Energy: -28.463223894554545 Kcal/mole
 H      2.3916678842    -6.6501084074     3.7325072479
 F      2.7704666829    -6.3351862549     2.9590575030
 H      1.3644957027    -5.8523806039     5.4855050377
 F      1.6311807845    -6.6806580289     5.1961530474
 H      1.6135689568    -3.7758680211     4.6101468895
 F      1.2803889070    -4.0897864082     5.4047129979
 H      2.5894342729    -4.6520425334     2.8292885908
 F      2.3190447146    -3.8094678197     3.0698012484
          8
Energy: -28.628048695815153 Kcal/mole
 H      4.5397177735    -6.2758876587     3.0349358908
 F      4.0601828847    -6.2806986026     2.2533272002
 H      5.4408227199    -4.9416993403     4.4385318036
 F      5.3043995155    -5.8484928136     4.4367135068
 H      5.1402519495    -3.3961928401     3.0633347359
 F      5.4583974927    -3.3580287965     3.9225296609
 H      4.1666590739    -4.7570439607     1.7275326338
 F      4.3863277649    -3.8699034881     1.6525896681
          8
Energy: -28.555178549614112 Kcal/mole
 H      4.4157168311    -7.3579941148     3.1241873678
 F      4.3989547008    -7.2101556333     4.0290364240
 H      5.2305356181    -6.2283375641     1.5052982414
 F      4.7557622832    -7.0118638524     1.4657275956
 H      5.8185041648    -4.6967927394     3.0124236585
 F      5.8806943248    -4.7854093650     2.1018367721
 H      5.1011083370    -5.8148157779     4.6284776506
 F      5.4950565210    -4.9868246638     4.6173177481
          8
Energy: -28.25144196170541 Kcal/mole
 H      4.2995861411    -5.7028706262     3.4517318949
 F      4.2640854069    -5.2752168124     4.2621274239
 H      4.8652905678    -5.1012144834     1.3672473272
 F      4.6739842049    -5.9116368965     1.7513129309
 H      5.6550583466    -3.2209060924     2.1161023608
 F      5.4160917355    -3.4337368478     1.2567496810
 H      5.2486356709    -3.9569621811     4.0272219801
 F      5.7760146153    -3.2653893474     3.7365547052
          8
Energy: -28.121433001280707 Kcal/mole
 H      5.4210416232    -6.7993855381     3.9851171741
 F      5.5213841960    -6.3925564168     4.8007828128
 H      5.1870553239    -6.5399649671     1.8784013761
 F      5.1154543213    -7.2656614414     2.4343932138
 H      5.4073293181    -4.3565048414     2.2658841532
 F      5.5111725661    -4.8850985679     1.5237963875
 H      5.2776304674    -4.7126420972     4.3716534903
 F      5.1430333617    -3.9178908204     3.9344544199
          8
Energy: -28.493357792092013 Kcal/mole
 H      6.9229972926    -6.7484593566     2.0799675023
 F      6.4785384688    -7.4596487876     2.4508515098
 H      6.6360874490    -4.6286814056     1.8410975649
 F      7.3860693898    -5.1419463203     1.7187243007
 H      4.5089759785    -4.9541257961     2.5950602291
 F      4.9660243735    -4.2261191714     2.2756825234
 H      4.9093976300    -7.0469218459     2.8613394479
 F      4.1317181909    -6.5916831705     3.0312259938
          8
Energy: -28.202276312911636 Kcal/mole
 H      6.8102503013    -6.0603612373    -0.1994302190
 F      7.2628317097    -5.6232667956     0.4676586190
 H      4.8080885624    -6.3692192317    -0.7852127980
 F      5.5930751828    -6.5338098397    -1.2297293191
 H      4.0336747997    -6.0066048031     1.0604176970
 F      3.5830710295    -6.0694959913     0.2642456423
 H      6.1427910760    -5.5339224641     1.6785971523
 F      5.3507056526    -5.6433017742     2.1275134569
          8
Energy: -28.488882507797342 Kcal/mole
 H      5.6613237352    -4.8060334261     2.0457901580
 F      5.3292755651    -3.9797822170     1.8268336505
 H      5.5572532429    -6.8525834624     1.5456689808
 F      6.1024357111    -6.3977968231     2.1260431611
 H      4.1759564346    -6.3977286265     0.0687710436
 F      4.4683902944    -7.2067185761     0.3864291917
 H      4.2446111109    -4.2139435723     0.5486961411
 F      3.8109086886    -4.6869940356    -0.1062958192
          8
Energy: -28.706816891505042 Kcal/mole
 H      6.1014252017    -4.1910766581     2.1306002282
 F      5.6562573575    -3.4019328608     1.9892968044
 H      5.8502698828    -6.3259480156     1.6993730343
 F      6.4755272660    -5.8700637414     2.1914215414
 H      3.9593857634    -5.9376830977     0.7383795622
 F      4.4965463368    -6.6803942269     0.7653554238
 H      4.2324076775    -3.7838540373     1.2135955781
 F      3.5476251029    -4.2613408541     0.8341642071
          8
Energy: -28.677421567862552 Kcal/mole
 H      5.7960063428    -4.0623908751     2.1431476769
 F      5.2806496937    -3.3458224805     1.8944988078
 H      5.7159988274    -5.5805272964     3.6653438542
 F      6.3466002495    -5.4623994987     3.0101517680
 H      3.9626877818    -4.6559433948     4.5305838982
 F      4.4413850924    -5.4228622827     4.6841199012
 H      4.0672397283    -3.1333384788     3.0417680493
 F      3.4783132872    -3.2239018422     3.7387995581
          8
Energy: -28.506255593138235 Kcal/mole
 H      5.9212269659    -3.7962478633     2.6876999440
 F      5.0045270330    -3.7873612123     2.6659914081
 H      7.4766583919    -3.9170415405     4.1588160377
 F      7.4528669010    -3.9708038101     3.2437026112
 H      6.1042670024    -3.5203390276     5.7006493586
 F      6.9846298240    -3.7636866837     5.7820878053
 H      4.5986021041    -3.4463063522     4.1994603270
 F      4.5929158970    -3.2714094883     5.0996090669
          8
Energy: -28.509950150319582 Kcal/mole
 H      6.6833783197    -2.8930156869     2.6936713230
 F      6.3778617593    -2.1344342550     3.1085241191
 H      6.7328337644    -4.9939555455     3.1742215133
 F      7.0670336962    -4.5445215914     2.4481302474
 H      5.6494491064    -4.4989724872     4.9944536637
 F      5.8319355330    -5.3141674137     4.6162408455
 H      5.8849652141    -2.4211412671     4.6707937860
 F      5.5663471342    -2.9030281135     5.3829430586
          8
Energy: -28.52727796541035 Kcal/mole
 H      6.8207571287    -3.6394748798     3.2334321471
 F      6.6332068681    -2.7454951705     3.3141426111
 H      7.2939735494    -5.2792348350     4.7225275480
 F      7.2965639417    -5.2311470917     3.8067929474
 H      7.0137797596    -4.0577535001     6.3945287743
 F      7.1609758749    -4.9626527920     6.3750460880
 H      6.8141077738    -2.3893367654     4.9444239095
 F      6.9541401205    -2.4255583138     5.8499447217
          8
Energy: -28.515978065221873 Kcal/mole
 H      6.3632573630    -5.3532448801     3.3685148104
 F      5.9418296719    -4.5405207990     3.3159099697
 H      7.3710232924    -6.4552162087     4.9563116247
 F      7.3535194844    -6.5351343677     4.0429684774
 H      6.5167288609    -5.3277951738     6.4493523725
 F      7.1462665857    -5.9918032016     6.5098882459
 H      5.5719657566    -4.1063639084     4.9033444143
 F      5.4988834758    -4.1320499089     5.8170665874
          8
Energy: -28.389036625902435 Kcal/mole
 H      4.8755346501    -6.2208917805     4.7307929339
 F      4.3894951670    -5.4433970211     4.7182821405
 H      6.6053320973    -7.0933265931     5.5674365702
 F      6.0636583504    -7.4337880922     4.9105008659
 H      7.1240951215    -5.1230020248     6.3385277352
 F      7.4055920865    -5.9534466015     6.6068750171
 H      5.4084034975    -4.3162069151     5.3719168625
 F      6.1332036813    -3.9018191570     5.7511746635
          8
Energy: -28.487253191719617 Kcal/mole
 H      5.4225470978    -6.5418367080     3.3696837293
 F      5.7141169958    -5.8758143964     2.8108543500
 H      5.0617149259    -6.9144965876     5.4127147570
 F      4.8809256643    -7.3955936375     4.6532742581
 H      5.5844608652    -4.9604001131     5.9012907508
 F      5.4665078026    -5.6635722466     6.4779405801
 H      5.9210790148    -4.5631361703     3.7685488727
 F      5.8693130173    -4.0562045777     4.5309330554
          8
Energy: -28.50159302614827 Kcal/mole
 H      3.5249985628    -5.5632678318     2.4531782086
 F      4.2350009544    -5.2729409197     1.9506885190
 H      2.7483352420    -5.2768778714     4.3731098991
 F      2.5265031282    -5.8775159720     3.7166699663
 H      4.3985607258    -4.0388582684     4.8664310521
 F      3.6058264321    -4.2118147317     5.2936867151
 H      5.2458360465    -4.4644106088     2.9047292141
 F      5.5718588445    -4.0329921927     3.6453210622
          8
Energy: -28.479909349139604 Kcal/mole
 H      3.3386069494    -4.7412405251     1.5529144530
 F      4.1990394529    -4.5351710383     1.3119159603
 H      2.4562231209    -5.1305546956     3.3705163747
 F      2.0580503137    -5.0483699239     2.5485716813
 H      4.4666962680    -5.3185565031     4.2418299839
 F      3.6062155668    -5.3895619187     4.5507315763
 H      5.3670674948    -4.7530642986     2.4690024789
 F      5.7795038879    -5.0116189589     3.2461348418
          8
Energy: -28.39157109221702 Kcal/mole
 H      3.7746918789    -5.6985036377     1.6694015967
 F      4.6131414754    -5.7447788704     1.3009590952
 H      2.9766124822    -5.3355917899     3.5254918679
 F      2.5743128880    -5.5630973304     2.7334784428
 H      4.8536606898    -4.8494980421     4.2699282792
 F      4.0420037616    -4.9776218101     4.6769741378
 H      5.8554420477    -5.2007040393     2.4023882047
 F      6.1295714406    -4.8288144105     3.1944994216
          8
Energy: -28.551957633005514 Kcal/mole
 H      3.8851888003    -4.8281270360     0.8338916134
 F      4.6016238956    -5.3881947866     0.7158498030
 H      2.7980756136    -4.0124614655     2.4314032654
 F      2.7504433239    -3.9144711930     1.5208989703
 H      3.9892080250    -5.3408604707     3.8078233743
 F      3.3713204157    -4.6720488377     3.9164277108
 H      5.0396412534    -6.0725463411     2.1432027284
 F      5.1137294962    -6.3215597253     3.0226299663
          8
Energy: -28.587569710170868 Kcal/mole
 H      1.8394291415    -5.7212665986     2.1026285096
 F      2.1714033010    -6.4804589819     1.7098065620
 H      2.3033763249    -4.6758288398     3.9479719121
 F      1.7849084884    -4.4237318087     3.2348609884
 H      3.6306229174    -6.2505550106     4.5848249834
 F      3.2054487114    -5.5713234588     5.0306505027
 H      3.4648892551    -7.0898175045     2.6311861585
 F      4.0851288192    -7.2392473120     3.2898686433
          8
Energy: -28.76648876692235 Kcal/mole
 H      3.0665187624    -5.3700319280     4.7827335294
 F      3.0219879859    -6.2671539305     4.9673361365
 H      3.7511122231    -4.1176648329     3.2201222672
 F      3.3913694654    -3.9371476909     4.0440686913
 H      4.4202039010    -5.7892612350     2.0833584675
 F      4.4766949830    -4.8912078762     1.9067291309
 H      3.7737479447    -7.0415460473     3.6881267288
 F      4.2127476863    -7.2357295629     2.9068066988
          8
Energy: -28.557103303829052 Kcal/mole
 H      2.2218674524    -5.8233248474     4.3012693499
 F      2.3181331355    -6.7352540706     4.3039170177
 H      3.2449624961    -3.9347060579     3.8537932672
 F      2.4303742856    -4.1013351877     4.2405357919
 H      4.8234627679    -5.2235701714     2.9954780981
 F      4.7005831358    -4.3152195188     3.0217209638
 H      3.8163036959    -7.0376407666     3.5262944556
 F      4.6106986860    -6.8758689142     3.0977440298
          8
Energy: -28.58714150905186 Kcal/mole
 H      3.0350705024    -5.7503483232     4.9357170637
 F      3.2135758585    -6.6444212473     5.0339944478
 H      3.8193799079    -4.1177203448     3.6468067291
 F      3.1399129074    -4.2174003977     4.2544887861
 H      5.3393832719    -5.2453348975     2.8674324371
 F      5.1201653687    -4.3690739223     2.7093210389
 H      4.5312001445    -6.9736476973     4.0824624117
 F      5.2414226928    -6.8638177341     3.5128921254
          8
Energy: -28.52144979046679 Kcal/mole
 H      2.7552897616    -5.6930378279     5.0261119620
 F      2.7749798114    -6.6035819560     4.9192911180
 H      3.6752855312    -4.1041647361     4.0786660038
 F      3.0990960260    -4.0538173846     4.7902556315
 H      4.7896179691    -5.5102958423     2.8980530273
 F      4.7128068235    -4.5968146555     2.9213160732
 H      3.9497603436    -7.1362930133     3.7517905716
 F      4.6369896545    -7.1448177535     3.1447220393
          8
Energy: -28.736268752097715 Kcal/mole
 H      3.1623209674    -6.0614919701     5.7818290154
 F      3.3695573208    -6.9510492553     5.8632533989
 H      4.2258260244    -4.1823559178     5.5115243165
 F      3.3450631042    -4.4330929070     5.5592384734
 H      6.1137092251    -5.1331006275     5.4977755820
 F      5.8864612585    -4.2453946466     5.5327820547
 H      5.0688092938    -7.0280540846     5.6856555280
 F      5.9447046417    -6.8047762204     5.5312426567
          8
Energy: -28.669035102329303 Kcal/mole
 H      2.9687304583    -5.5839311434     4.7035976682
 F      3.2771529684    -6.2275574999     4.1278289052
 H      3.8010318055    -4.1238158296     6.1163478369
 F      2.9303850293    -4.3164469810     5.9024403086
 H      5.7891708794    -4.8627929810     5.6883046755
 F      5.4457988686    -4.1525929480     6.1558520800
 H      4.9642898399    -6.3371965573     4.3135573080
 F      5.8188977133    -6.2098212946     4.6206565185
          8
Energy: -28.574585406081297 Kcal/mole
 H      3.5203935940    -5.2460254786     6.4991345372
 F      3.9535441362    -6.0538474238     6.4728037068
 H      3.6517915867    -3.2644070218     5.5382617889
 F      3.1092116706    -3.6177943021     6.1875794806
 H      5.4037301200    -3.8186287014     4.4650527278
 F      4.8854228231    -3.0638072652     4.4151413512
 H      5.2695149988    -5.8212344954     5.5624368682
 F      5.8571800608    -5.4296291227     4.9774719060
          8
Energy: -28.661036402358405 Kcal/mole
 H      2.6594627281    -5.2476292660     5.7625070036
 F      3.1519109544    -6.0059552280     5.9152338178
 H      2.8784485264    -3.3385734644     4.8883030474
 F      2.1826304490    -3.7237222338     5.3447968903
 H      5.0322261681    -3.8711945770     4.4085149769
 F      4.5005304027    -3.1308101791     4.3084172421
 H      4.7191005484    -5.8129126325     5.2500673618
 F      5.4361769292    -5.4500997305     4.8084144865
          8
Energy: -28.700318399602253 Kcal/mole
 H      2.4710201074    -5.4392672635     4.9670764509
 F      2.9003335077    -5.7167230336     4.2057635718
 H      3.0371171806    -4.6433129694     6.8165157448
 F      2.2067620502    -4.7773504147     6.4512304856
 H      5.0858202741    -4.5928018243     6.1364513922
 F      4.7130281928    -4.4759952710     6.9660725667
 H      4.5283817740    -5.1626316297     4.2043156829
 F      5.3364312896    -4.8768180479     4.5302843573
          8
Energy: -28.709646674042204 Kcal/mole
 H      2.6970633373    -5.7052065170     5.3539615585
 F      3.0989434456    -5.7264479505     4.5299893623
 H      2.8346229363    -4.6455856244     7.2582703921
 F      2.2505139903    -5.2777895135     6.9420047096
 H      4.5628766231    -3.5721179060     6.4933443724
 F      4.2150288599    -3.6154086681     7.3407031179
 H      4.3230617742    -4.6002925169     4.5805328286
 F      4.9025088510    -3.9392273035     4.8415364088
          8
Energy: -28.635922173585442 Kcal/mole
 H      2.9542036876    -5.7052148270     5.2637101511
 F      3.2285532724    -5.5110874831     4.4105185668
 H      3.3950549824    -5.4664339560     7.2434677632
 F      2.6642205834    -5.8787632935     6.8736643038
 H      5.1753669864    -4.2665910111     6.5520574030
 F      4.8883205327    -4.5917828522     7.3599828946
 H      4.5958886042    -4.4873523986     4.5348356735
 F      5.2612560552    -3.9830565806     4.9141256457
          8
Energy: -28.668122416576466 Kcal/mole
 H      3.1799627586    -6.0474127522     5.3711174952
 F      3.3524249330    -5.8996672647     4.4826823151
 H      3.8051240045    -5.5225257254     7.2834842187
 F      3.0598469348    -5.9850702685     7.0160825824
 H      5.3125619076    -4.2671119578     6.4843888219
 F      5.1422691288    -4.5352795641     7.3446071107
 H      4.4939766334    -4.6933121578     4.5035807767
 F      5.1432194351    -4.1158855017     4.7967551978
          8
Energy: -28.7002431606318 Kcal/mole
 H      3.0047745647    -6.7898899566     5.5317859144
 F      3.2564913240    -6.6661948871     4.6587296717
 H      3.7664961212    -6.2177052843     7.4293256646
 F      3.0653541695    -6.7638766445     7.2035252905
 H      5.1959135355    -4.9014515075     6.5268789498
 F      4.9497043365    -5.0897670932     7.3899011225
 H      4.5121593670    -5.5625765428     4.6057576123
 F      5.1587536943    -4.9488437507     4.8205524813
          8
Energy: -28.707482333717394 Kcal/mole
 H      2.8153155674    -5.8774678723     5.8548121792
 F      2.7857263695    -5.8549746266     4.9385657422
 H      4.2890987574    -5.5764640784     7.4535680512
 F      3.3820222508    -5.7107741082     7.4456923279
 H      5.8440191372    -5.2142167750     5.9929597489
 F      5.8552196568    -5.2219447760     6.9098587762
 H      4.3073466531    -5.4619609268     4.4241346653
 F      5.1886750328    -5.2122295083     4.3819030939
          8
Energy: -28.6795357085974 Kcal/mole
 H      2.4299307740    -5.9774251290     5.5413958775
 F      2.5583409920    -6.3319949750     4.7055250501
 H      3.5534225926    -4.9655854213     7.0550605502
 F      2.6858856184    -5.2584771005     7.0052302127
 H      5.3367493725    -5.1596626115     5.7507356343
 F      5.2462131275    -4.8025027172     6.5904552293
 H      4.1757733115    -6.1768399456     4.2875296882
 F      5.0668803610    -5.9608869752     4.2740559737
          8
Energy: -28.7896968363128 Kcal/mole
 H      2.6998124211    -6.6453911164     5.8028219532
 F      2.7936478803    -7.1181121287     5.0226817407
 H      3.9169671791    -5.3209951013     6.9973472125
 F      3.0590675671    -5.6297006846     7.0953172009
 H      5.4124921862    -5.2546849845     5.5864441693
 F      5.3897377351    -4.8857632855     6.4256509465
 H      4.2402783003    -6.5929209418     4.3490198713
 F      5.0491376955    -6.1733244965     4.2461884468
          8
Energy: -28.729761054003916 Kcal/mole
 H      2.5136101309    -6.3180858739     5.6065401479
 F      2.6510146927    -6.8578091914     4.8780432522
 H      3.7610938938    -5.0537496270     6.9045509869
 F      2.8647254740    -5.2459309108     6.9264372864
 H      5.5189439127    -5.5812813924     5.6971515350
 F      5.3831318850    -5.0016379596     6.3946166481
 H      4.3063733775    -6.8074326243     4.4161735072
 F      5.2111905576    -6.6585205481     4.4206528265
          8
Energy: -28.801559648711304 Kcal/mole
 H      2.6505364579    -6.9471797011     5.5617511918
 F      2.7160191407    -7.3101884027     4.7222122107
 H      3.8795392444    -5.8790100534     6.9218758546
 F      3.0013648912    -6.1313212087     6.9995796915
 H      5.4806727459    -5.8412593648     5.5216957946
 F      5.3907582434    -5.4944078437     6.3657920003
 H      4.2924379474    -6.9909350915     4.1231190226
 F      5.1535444464    -6.6789766897     4.0776596672
          8
Energy: -28.82957655902669 Kcal/mole
 H      3.1416472097    -7.3153680203     5.6228572612
 F      2.7718494006    -7.1583906154     4.7985413783
 H      4.9012551137    -6.7799577242     6.6997730120
 F      4.2184233032    -7.3613520330     6.8911113939
 H      5.5551071310    -5.5707076782     5.0405411127
 F      5.8935958067    -5.7086995914     5.8815361474
 H      3.7844554570    -6.1381788237     3.9888595785
 F      4.4946801122    -5.6046186784     3.7612996732
          8
Energy: -28.872005923706666 Kcal/mole
 H      3.1339616361    -7.2656314156     5.8629906308
 F      2.6430839998    -7.0234835779     5.1272647506
 H      4.9569908363    -6.6329139339     6.7602835298
 F      4.3558645032    -7.2801485562     7.0065018787
 H      5.3297030777    -5.3082131511     5.1063640065
 F      5.7773081170    -5.4588030643     5.8924056128
 H      3.5295245266    -5.9370157397     4.1929821185
 F      4.1861506803    -5.3787234444     3.8798674315
          8
Energy: -28.820783392090362 Kcal/mole
 H      3.0082098403    -7.3682817250     5.7467144745
 F      2.5973563941    -7.3320321423     4.9277062856
 H      4.8498141526    -6.6271625009     6.5591153396
 F      4.1867501013    -7.1300021207     6.9443261658
 H      5.3570848723    -5.6060574266     4.7754002972
 F      5.7804090585    -5.6711075020     5.5862357436
 H      3.5055221371    -6.3241343904     3.9207092497
 F      4.1562416056    -5.7695861061     3.5891532610
          8
Energy: -28.80847616098336 Kcal/mole
 H      3.1033240543    -7.3436464162     5.7407285447
 F      2.7004432874    -7.2273185607     4.9252262959
 H      4.9196626256    -6.8475568088     6.6825786333
 F      4.1772845127    -7.2826653864     6.9995080628
 H      5.6058346053    -6.0294622248     4.8010044019
 F      5.9804602862    -6.0444788083     5.6378551062
 H      3.8188293729    -6.5828958581     3.8870641222
 F      4.6037509540    -6.2667529430     3.5337359904
          8
Energy: -28.825613699045192 Kcal/mole
 H      3.0086540922    -7.4011793450     5.7053438312
 F      2.6315100990    -7.4362671700     4.8702269215
 H      4.7750720143    -6.6677858706     6.6889067701
 F      4.0172604286    -7.0809064617     6.9986517907
 H      5.6289204310    -6.2142434182     4.7566455101
 F      5.9332869915    -6.0512894326     5.6061724346
 H      3.8037591579    -6.9324085003     3.8225488091
 F      4.5978399909    -6.6205258864     3.4863139719
          8
Energy: -28.84477740178025 Kcal/mole
 H      2.8430028073    -7.2818885911     5.8375297738
 F      2.5446483598    -7.4719541913     4.9915104530
 H      4.4395431704    -6.1460988622     6.7337054865
 F      3.7451385315    -6.6193691715     7.1007292075
 H      5.2325640206    -5.7256557186     4.7929524144
 F      5.5273535716    -5.4778992828     5.6251812706
 H      3.6299388670    -6.7581088880     3.8985094396
 F      4.3364211225    -6.3024771253     3.5322151324
          8
Energy: -28.856012595837825 Kcal/mole
 H      2.8852075058    -7.0869709629     5.9389457235
 F      2.5135142469    -7.3080230758     5.1303240043
 H      4.5920944066    -6.0754559911     6.7355506011
 F      3.8911644665    -6.4933764541     7.1537953926
 H      5.3291166539    -5.7529183264     4.7688338656
 F      5.6632218345    -5.4845533971     5.5795391098
 H      3.6060064137    -6.7835804830     3.9542298847
 F      4.3310481141    -6.3883475774     3.5554887619
          8
Energy: -28.88674537776876 Kcal/mole
 H      2.8860668589    -7.1761924892     5.9240028819
 F      2.5656688373    -7.4147669453     5.0985839964
 H      4.4702322256    -5.9939750628     6.7239571210
 F      3.7976844586    -6.4593181154     7.1387152971
 H      5.2241604546    -5.6620121629     4.7738876585
 F      5.4876089486    -5.3352115682     5.5891699791
 H      3.6645734881    -6.8616004845     3.9309527671
 F      4.3853776723    -6.4446100653     3.5469614671
          8
Energy: -28.88465654258235 Kcal/mole
 H      2.9598412014    -7.1824790883     5.8738847720
 F      2.6355044152    -7.3882196140     5.0411990658
 H      4.6445638979    -6.1761276551     6.7251071197
 F      3.9066712791    -6.5611462787     7.1100280759
 H      5.3860939871    -5.7798531830     4.7375995795
 F      5.7122962926    -5.5926728235     5.5739276066
 H      3.6796708722    -6.7650256183     3.8988515251
 F      4.3981535096    -6.3730414971     3.4853057014
          8
Energy: -28.888189702313355 Kcal/mole
 H      2.9782222171    -7.2318764995     5.8494478144
 F      2.6689392279    -7.4707424690     5.0198840247
 H      4.5819724081    -6.0599917576     6.6590497449
 F      3.9258385240    -6.5578313990     7.0622035836
 H      5.2554934521    -5.5895751883     4.6855917300
 F      5.5160862989    -5.3015760738     5.5162763141
 H      3.7249326353    -6.8374758701     3.8959897112
 F      4.4113617540    -6.3976444971     3.4761654285
          8
Energy: -28.86811283614753 Kcal/mole
 H      2.9677096831    -7.2264138166     5.8791253249
 F      2.6635175385    -7.4733835115     5.0500522829
 H      4.5428067508    -6.0280585394     6.6576404563
 F      3.8957318384    -6.5276113035     7.0731282342
 H      5.2604858491    -5.5618233257     4.6852680979
 F      5.5023271968    -5.2638416449     5.5180998219
 H      3.7199714558    -6.8236532498     3.9123023730
 F      4.3959157403    -6.3694317665     3.4907917938
          8
Energy: -28.921827695831496 Kcal/mole
 H      2.9690015444    -7.2174802464     5.8896801915
 F      2.6650486522    -7.4783311698     5.0647811460
 H      4.5458838203    -5.9916865958     6.6857685010
 F      3.8846863680    -6.4824231285     7.0893581249
 H      5.2072779047    -5.5550466229     4.7103494551
 F      5.5068960733    -5.2657251047     5.5273017255
 H      3.6709169136    -6.8087497749     3.9221682744
 F      4.3440672900    -6.3375735153     3.5150435968
          8
Energy: -28.928338795320883 Kcal/mole
 H      2.9736443801    -7.2139749154     5.8868341994
 F      2.6648023605    -7.4785171195     5.0649321193
 H      4.5385023273    -5.9837251819     6.6835163729
 F      3.8850779391    -6.4828454631     7.0894775951
 H      5.2154293915    -5.5566076840     4.7079608064
 F      5.5064636557    -5.2656422940     5.5274284378
 H      3.6762184470    -6.8033137951     3.9080448283
 F      4.3501722818    -6.3273632796     3.5078619508
