          8
Energy: -28.919778014175847 Kcal/mole
 H      5.0845471386    -5.7793055032     5.1628383143
 F      5.0308519442    -5.2959226890     5.9402358194
 H      5.9765272125    -5.5701474820     3.2156769136
 F      5.4892883566    -6.2440466426     3.6021315923
 H      6.7615847029    -3.6587635914     3.7596189473
 F      6.8027366125    -4.1364842418     2.9779678100
 H      5.8918181879    -3.8883530928     5.7133108411
 F      6.3958343615    -3.2234072253     5.3329114589
          8
Energy: -28.91169285930505 Kcal/mole
 H      5.1097280938    -5.7893065431     5.1860971108
 F      5.0465156511    -5.3055062629     5.9625186947
 H      5.9802563612    -5.5783567664     3.2252952673
 F      5.5015104562    -6.2572347119     3.6136457451
 H      6.7477801171    -3.6620399685     3.7434496905
 F      6.7860230284    -4.1408668636     2.9623278791
 H      5.9291087827    -3.8977832473     5.7118306278
 F      6.4252579002    -3.2284352860     5.3288184088
          8
Energy: -28.91362262548941 Kcal/mole
 H      5.0666992326    -5.7260505479     5.1571708019
 F      4.9932946492    -5.2371103354     5.9294649400
 H      5.9676493208    -5.5432613529     3.2159737989
 F      5.4826284111    -6.2081466231     3.6204132811
 H      6.7181079246    -3.6249791560     3.7264786872
 F      6.7768941864    -4.1040673328     2.9467943317
 H      5.8527220133    -3.8365121279     5.6843366849
 F      6.3681762625    -3.1799761354     5.3046573366
          8
Energy: -28.91205838160559 Kcal/mole
 H      5.1348906302    -5.7387486708     5.1440776952
 F      5.0611683907    -5.2472354067     5.9147064921
 H      6.0139547987    -5.5366917513     3.2102973200
 F      5.5369583360    -6.2228007245     3.5879451077
 H      6.7563913071    -3.6033113148     3.7217664361
 F      6.7909062029    -4.0902563404     2.9455047122
 H      5.9281668932    -3.8104749224     5.7028165825
 F      6.4269177268    -3.1508674621     5.3065154288
          8
Energy: -28.919765367852563 Kcal/mole
 H      5.1359459174    -5.7352386188     5.1313988683
 F      5.0850384673    -5.2424180377     5.9030369353
 H      6.0141241594    -5.5341214296     3.1955393355
 F      5.5017352499    -6.1999655870     3.5629602978
 H      6.8055509722    -3.6369691528     3.7409442676
 F      6.8818247758    -4.1303295607     2.9717454540
 H      5.9029732940    -3.8109472270     5.6677793524
 F      6.4055656779    -3.1405352980     5.2951699844
          8
Energy: -28.91324791368433 Kcal/mole
 H      5.1954127652    -5.7427216741     5.1516353128
 F      5.1814485570    -5.2735859942     5.9394206356
 H      6.0353007890    -5.5556465462     3.1874633452
 F      5.5006118786    -6.1988237293     3.5633887104
 H      6.8850548285    -3.6645731869     3.7765703399
 F      6.9501788963    -4.1592008614     3.0071606185
 H      5.9792645071    -3.8217400934     5.6963538438
 F      6.4632667757    -3.1433427376     5.3137210804
          8
Energy: -28.925863778351356 Kcal/mole
 H      5.1060872162    -5.6925580994     5.1432338192
 F      5.0411831054    -5.1940666248     5.9101645241
 H      6.0377631177    -5.5289657791     3.2245512926
 F      5.5045262326    -6.1780430992     3.5923094427
 H      6.8669312044    -3.6320951035     3.7694069482
 F      6.9313949146    -4.1287491663     3.0012479985
 H      5.9291262236    -3.7910529856     5.6823137275
 F      6.4659264958    -3.1449706178     5.3144658761
          8
Energy: -28.91665312571979 Kcal/mole
 H      5.1239894951    -5.7013130880     5.1571530827
 F      5.0829052088    -5.2073322293     5.9286347693
 H      6.0418644630    -5.5394512990     3.2263308100
 F      5.5177205490    -6.1933876412     3.5985262127
 H      6.8624478943    -3.6272278395     3.7658450631
 F      6.9316327438    -4.1290073634     3.0014369483
 H      5.9390178284    -3.7942136455     5.6881496913
 F      6.4290222683    -3.1199821334     5.3057931601
          8
Energy: -28.918934863442644 Kcal/mole
 H      5.1390950880    -5.7044897604     5.1476801351
 F      5.0692319363    -5.2154430959     5.9202353111
 H      6.0860659569    -5.5646629221     3.2408851290
 F      5.5586146751    -6.2130547838     3.6180749208
 H      6.8500724288    -3.6261134119     3.7755175733
 F      6.9440524548    -4.1308989240     3.0157489627
 H      5.8822341947    -3.7730030413     5.6824739360
 F      6.3978356310    -3.1132221734     5.3086646726
          8
Energy: -28.915616969835725 Kcal/mole
 H      5.1228808634    -5.7169711832     5.1545071379
 F      5.0800039916    -5.2226748345     5.9256891485
 H      6.0410032954    -5.5423716000     3.2201479836
 F      5.5322940963    -6.2072372702     3.5943906741
 H      6.8175624138    -3.6119871039     3.7681722253
 F      6.8964357435    -4.1116737908     3.0033315799
 H      5.8940108148    -3.7725360224     5.6785088586
 F      6.3790801307    -3.0947200391     5.2961971382
          8
Energy: -28.922177314064612 Kcal/mole
 H      5.0252086182    -5.6399506963     5.0978669627
 F      4.9403210099    -5.1421235425     5.8632761466
 H      6.0045155642    -5.5217262420     3.2013652226
 F      5.4751209469    -6.1703134951     3.5754840732
 H      6.8366890434    -3.6264612901     3.7579855623
 F      6.8845529225    -4.1193729834     2.9862109114
 H      5.8652636466    -3.7639721509     5.6601185656
 F      6.4314989329    -3.1321390512     5.3121910809
          8
Energy: -28.91735781419419 Kcal/mole
 H      5.0450055150    -5.6288622429     5.1297681537
 F      4.9700117373    -5.1232530751     5.8910987669
 H      5.9784029113    -5.4924949103     3.2065436324
 F      5.4535560392    -6.1445016220     3.5811260783
 H      6.8249990987    -3.5991549287     3.7699736148
 F      6.8929895580    -4.0920253150     2.9996846562
 H      5.8578008488    -3.7332355349     5.6694531893
 F      6.3897297680    -3.0832444926     5.3014147812
          8
Energy: -28.92277356945081 Kcal/mole
 H      5.0644542294    -5.6460388947     5.1197821003
 F      5.0050559048    -5.1551379766     5.8920366747
 H      6.0148044762    -5.4944651143     3.2086737594
 F      5.4687167686    -6.1371498160     3.5687204089
 H      6.8205453682    -3.5967760235     3.7675270551
 F      6.8984288254    -4.0987588072     3.0040897938
 H      5.8733014112    -3.7353333730     5.6852637530
 F      6.3974059856    -3.0841654144     5.3081912338
          8
Energy: -28.915937032640272 Kcal/mole
 H      5.0763783760    -5.6563275145     5.1522038081
 F      5.0068525688    -5.1463499493     5.9111359824
 H      6.0318133903    -5.5116464222     3.2375844865
 F      5.5002298959    -6.1611210041     3.6070310401
 H      6.8313712144    -3.6044752499     3.7801470899
 F      6.9305065639    -4.1103044979     3.0217290295
 H      5.8672847507    -3.7414310376     5.6657359937
 F      6.3977251556    -3.0838419474     5.3092271363
          8
Energy: -28.9165242305439 Kcal/mole
 H      5.0685897613    -5.6347113782     5.1429284228
 F      4.9819037110    -5.1470167350     5.9146333300
 H      6.0419203757    -5.5001546135     3.2533800189
 F      5.5062029115    -6.1479026026     3.6198746862
 H      6.8543590057    -3.6054159324     3.7834044483
 F      6.9292871147    -4.1102545969     3.0215562342
 H      5.8479550836    -3.7259784238     5.6914303559
 F      6.3819328548    -3.0869231859     5.3075486778
          8
Energy: -28.91930149212243 Kcal/mole
 H      5.0792510422    -5.6649875032     5.1518990580
 F      4.9829759464    -5.1447509446     5.9008810531
 H      6.0451019693    -5.5095262472     3.2449147911
 F      5.5299610443    -6.1718700995     3.6148059220
 H      6.8019382981    -3.5871018018     3.7808376166
 F      6.8893209320    -4.0844713557     3.0154117207
 H      5.8223863618    -3.7085183742     5.6769847602
 F      6.3419423875    -3.0514859897     5.3038105625
          8
Energy: -28.90282439151173 Kcal/mole
 H      5.1371444037    -5.6813771015     5.1540907102
 F      5.0382145411    -5.1823194969     5.9170083923
 H      6.0258650645    -5.5114922445     3.2374270346
 F      5.5017648070    -6.1669202700     3.6070511999
 H      6.7808616058    -3.5758012134     3.7706232054
 F      6.8904390018    -4.0850708258     3.0159535716
 H      5.8338765113    -3.7414557596     5.6739567733
 F      6.3214257959    -3.0614684855     5.2987208446
          8
Energy: -28.897913024445444 Kcal/mole
 H      5.0821393595    -5.6503472006     5.1436607221
 F      5.0370981809    -5.1472282608     5.9089917777
 H      5.9899398853    -5.4966638961     3.2286718828
 F      5.4430775130    -6.1369283014     3.5918413159
 H      6.8044221285    -3.5687527559     3.8083503740
 F      6.9092272653    -4.0832856682     3.0565786232
 H      5.8387919919    -3.7107196100     5.6863892142
 F      6.3377717584    -3.0331749509     5.3219150346
          8
Energy: -28.915437944671226 Kcal/mole
 H      5.0626058759    -5.6438382146     5.2004201357
 F      4.9656535868    -5.1281095208     5.9524262314
 H      6.0296979940    -5.4922725380     3.2999675336
 F      5.5005295281    -6.1509167346     3.6564188723
 H      6.7645346000    -3.5665232011     3.7952522529
 F      6.8845905941    -4.0909907574     3.0526828347
 H      5.7662742220    -3.6790775227     5.6925961396
 F      6.2714510952    -3.0177494671     5.3074591123
          8
Energy: -28.91970812679071 Kcal/mole
 H      5.1302717756    -5.6659549329     5.2055736534
 F      5.0444701951    -5.1645034942     5.9685110973
 H      6.0293653811    -5.5063884955     3.2930925555
 F      5.5212109188    -6.1708501109     3.6688036202
 H      6.7644972633    -3.5611404510     3.7919594861
 F      6.8701529185    -4.0846325825     3.0465187636
 H      5.8308351256    -3.7032270302     5.7070379813
 F      6.2961775843    -3.0220177870     5.3066639523
          8
Energy: -28.915791988694764 Kcal/mole
 H      5.0498038369    -5.6591298829     5.1978083192
 F      4.9249318676    -5.1407248435     5.9438325859
 H      6.0266968779    -5.5204930774     3.2854548544
 F      5.5191869748    -6.1763723610     3.6767923860
 H      6.7146454864    -3.5601975347     3.7844350698
 F      6.8316894185    -4.0687648601     3.0304131912
 H      5.7329686460    -3.6905371102     5.6681247479
 F      6.2382645232    -3.0250382939     5.2903994483
          8
Energy: -28.915542690916 Kcal/mole
 H      5.0941903267    -5.6826609601     5.2121124790
 F      4.9746406165    -5.1533602184     5.9513266507
 H      6.0473850209    -5.5458025814     3.2897624175
 F      5.5721625017    -6.2180452259     3.6936712986
 H      6.6966559871    -3.5567278429     3.7782248447
 F      6.8287149071    -4.0779353254     3.0353976766
 H      5.7696474472    -3.7079553698     5.6838593684
 F      6.2363187976    -3.0241142955     5.2895647630
          8
Energy: -28.9267489385918 Kcal/mole
 H      5.0858421448    -5.6673662840     5.2001294323
 F      4.9750834683    -5.1541715656     5.9519623237
 H      6.0337470303    -5.5217723866     3.2958540514
 F      5.5515733558    -6.1973980429     3.6856328606
 H      6.7127300786    -3.5561037047     3.7804575988
 F      6.8278622137    -4.0779684345     3.0352792341
 H      5.7603491220    -3.6915402651     5.6881997358
 F      6.2492393091    -3.0241295680     5.2926768585
          8
Energy: -28.91739829554271 Kcal/mole
 H      5.0693494849    -5.6706380266     5.2001310157
 F      4.9759583658    -5.1539980073     5.9519622397
 H      6.0154954386    -5.5194809763     3.2718679340
 F      5.5008232575    -6.1763359977     3.6520560807
 H      6.7427627427    -3.5774974036     3.7970299048
 F      6.8591689892    -4.0918876886     3.0468691084
 H      5.7749364055    -3.7212912822     5.6944944115
 F      6.2788327468    -3.0575096185     5.3119092835
          8
Energy: -28.921891297607743 Kcal/mole
 H      5.0821217961    -5.6662353380     5.2011364938
 F      4.9909871688    -5.1498492025     5.9534189134
 H      6.0070779612    -5.5187543894     3.2882058500
 F      5.4937180322    -6.1776354871     3.6666583336
 H      6.7681098100    -3.5789200677     3.8014724544
 F      6.8578243858    -4.0918122195     3.0466334414
 H      5.8124107932    -3.7020901783     5.7170411326
 F      6.3176155489    -3.0420555888     5.3297279577
          8
Energy: -28.924063616300316 Kcal/mole
 H      5.0850776489    -5.6570028625     5.1927619966
 F      5.0063700658    -5.1455976981     5.9498345652
 H      6.0190346910    -5.5139634314     3.2722571990
 F      5.5173033517    -6.1789052862     3.6556721087
 H      6.7513584724    -3.5679234942     3.7983803377
 F      6.8459914555    -4.0783961975     3.0425025581
 H      5.8219600946    -3.7109502070     5.7141563871
 F      6.3171089805    -3.0415855848     5.3298809867
          8
Energy: -28.911715985057583 Kcal/mole
 H      5.0948297946    -5.6729801712     5.2104917947
 F      4.9967380608    -5.1439479078     5.9530494531
 H      6.0365538052    -5.5122975990     3.3131442884
 F      5.5450609676    -6.1932849895     3.6813561358
 H      6.7523817771    -3.5607392974     3.7936041213
 F      6.8459371715    -4.0787773025     3.0427559253
 H      5.8224654464    -3.6990311112     5.7150340206
 F      6.3270084760    -3.0420582105     5.3216996348
          8
Energy: -28.91904787208091 Kcal/mole
 H      5.1033589558    -5.6578229339     5.2156100336
 F      4.9957158432    -5.1321317024     5.9592165757
 H      6.0619387152    -5.5242098553     3.3074208221
 F      5.5832054377    -6.1979731246     3.7045939657
 H      6.7442365082    -3.5643665631     3.7950346238
 F      6.8463692592    -4.0785848845     3.0426800405
 H      5.7898646395    -3.6874743028     5.6860140421
 F      6.2733787080    -3.0106740777     5.2999510928
          8
Energy: -28.9139216934486 Kcal/mole
 H      5.1612255602    -5.6755427215     5.2411744563
 F      5.0614610757    -5.1422761990     5.9804733564
 H      6.0754647949    -5.5332009257     3.3261259290
 F      5.5924091196    -6.2123975659     3.7085368840
 H      6.7256541986    -3.5297640841     3.7934680008
 F      6.8519048527    -4.0733443782     3.0658209461
 H      5.7673944650    -3.6530573074     5.6804550629
 F      6.2343492826    -2.9699677948     5.2851944956
          8
Energy: -28.92097536603694 Kcal/mole
 H      5.1804699404    -5.6701257631     5.2374793636
 F      5.0949535338    -5.1614138486     5.9956271937
 H      6.0801475323    -5.5344239078     3.3147488944
 F      5.5931120668    -6.2015546000     3.7130227885
 H      6.7281695303    -3.5395628542     3.7922722825
 F      6.8476296762    -4.0634248877     3.0491795269
 H      5.8314675802    -3.6903334667     5.7137481977
 F      6.2854887458    -3.0063659159     5.3051626245
          8
Energy: -28.91907792693874 Kcal/mole
 H      5.1832774605    -5.6798679562     5.2444380028
 F      5.0948046013    -5.1608970478     5.9952580540
 H      6.0767919219    -5.5274412001     3.3225006375
 F      5.5932900742    -6.2019250165     3.7126115765
 H      6.7616846367    -3.5507976574     3.7976532221
 F      6.8441011247    -4.0734202165     3.0486791350
 H      5.8730410048    -3.7131182074     5.7154080737
 F      6.3495036914    -3.0291538311     5.3332235107
          8
Energy: -28.92460145649966 Kcal/mole
 H      5.1793506416    -5.6769950837     5.2420102754
 F      5.0950129100    -5.1610494470     5.9953868393
 H      6.0990045469    -5.5444759931     3.3273921126
 F      5.6063524881    -6.2150662688     3.7127382311
 H      6.7943955502    -3.5733346858     3.8138720433
 F      6.8824529150    -4.0932150932     3.0636325732
 H      5.8797781658    -3.7046577906     5.7400300987
 F      6.3620307496    -3.0339914258     5.3418742593
          8
Energy: -28.918415479047383 Kcal/mole
 H      5.2081775967    -5.6946519412     5.2596669895
 F      5.1280199829    -5.1739420601     6.0102167724
 H      6.0770284670    -5.5516191751     3.3121794068
 F      5.6040830265    -6.2249152567     3.7170052912
 H      6.7812717486    -3.5738905829     3.8125946450
 F      6.8831491024    -4.0931856042     3.0637003362
 H      5.8954731894    -3.7170793893     5.7375790811
 F      6.3611981649    -3.0333324887     5.3420042801
          8
Energy: -28.91845366286907 Kcal/mole
 H      5.2010392686    -5.6874941542     5.2540327170
 F      5.1283986548    -5.1743217641     6.0105156575
 H      6.0805269657    -5.5500682550     3.3189242607
 F      5.6038974392    -6.2249975295     3.7166474923
 H      6.7893397196    -3.5898204867     3.8082301976
 F      6.8770251386    -4.1074954050     3.0564237422
 H      5.8812671639    -3.7095998989     5.7239805257
 F      6.3531155384    -3.0312183408     5.3264298081
          8
Energy: -28.924822664003273 Kcal/mole
 H      5.1904189563    -5.6903335160     5.2550238369
 F      5.1289620378    -5.1741711426     6.0104630809
 H      6.0714185551    -5.5529267188     3.3173525144
 F      5.5850215367    -6.2239026505     3.7099060005
 H      6.8071196691    -3.5904630741     3.8105210331
 F      6.8760819534    -4.1074613172     3.0563022187
 H      5.9333214994    -3.7270123766     5.7498738009
 F      6.4133625356    -3.0574068640     5.3472846045
          8
Energy: -28.923209788002282 Kcal/mole
 H      5.1949946480    -5.6867765333     5.2670525663
 F      5.1439048638    -5.1825895464     6.0313001154
 H      6.0710567183    -5.5549072834     3.3274545763
 F      5.5740040347    -6.2123632171     3.7294238848
 H      6.8049078290    -3.5976886509     3.8144761126
 F      6.8866823587    -4.1133130665     3.0605972177
 H      5.9379753308    -3.7320310677     5.7470035900
 F      6.4131156606    -3.0571406341     5.3474368626
          8
Energy: -28.9272903145297 Kcal/mole
 H      5.1683423521    -5.6707655135     5.2598589931
 F      5.0931192385    -5.1496538798     6.0106406847
 H      6.0575705291    -5.5527323084     3.3250354011
 F      5.5765840861    -6.2174621949     3.7345170486
 H      6.8021403946    -3.5894558888     3.8085047381
 F      6.8609781260    -4.1028139264     3.0509490328
 H      5.9184893834    -3.7179449750     5.7468624500
 F      6.4141493450    -3.0578878687     5.3474443497
          8
Energy: -28.927821005825336 Kcal/mole
 H      5.1738350284    -5.6692637360     5.2671063097
 F      5.1026845994    -5.1613853115     6.0272945248
 H      6.0572395523    -5.5440056432     3.3354023882
 F      5.5611476951    -6.2029318215     3.7361493917
 H      6.7848986567    -3.5879649297     3.8059425353
 F      6.8618927604    -4.1028930183     3.0510849517
 H      5.9050985801    -3.7135168388     5.7451225371
 F      6.3918868217    -3.0503173026     5.3400391098
          8
Energy: -28.92181740461831 Kcal/mole
 H      5.1636540614    -5.6706837964     5.2671753419
 F      5.1032246762    -5.1613099806     6.0272908628
 H      6.0674870797    -5.5521544895     3.3349148144
 F      5.5606040875    -6.2024995440     3.7361752564
 H      6.8210439813    -3.6081566418     3.8202727051
 F      6.9006871189    -4.1132957388     3.0591022489
 H      5.9133713208    -3.7286694376     5.7464131173
 F      6.4059528888    -3.0657302975     5.3479609928
          8
Energy: -28.922127885767992 Kcal/mole
 H      5.1745347848    -5.6901149720     5.2934561799
 F      5.0862323640    -5.1630766879     6.0386557032
 H      6.0725785065    -5.5376550174     3.3568625978
 F      5.5898911176    -6.2073652432     3.7560994926
 H      6.7915408903    -3.5856868192     3.8184200459
 F      6.8818663768    -4.1026620154     3.0664446787
 H      5.8674637886    -3.7117652695     5.7548064122
 F      6.3478217258    -3.0481888516     5.3427243940
          8
Energy: -28.92803460563246 Kcal/mole
 H      5.1643879684    -5.6747519278     5.2899406233
 F      5.0797819165    -5.1553288232     6.0408936541
 H      6.0738006980    -5.5408008691     3.3530968912
 F      5.5898262832    -6.2071983631     3.7562992546
 H      6.7798840274    -3.5815692681     3.8140688069
 F      6.8824847464    -4.1028804420     3.0666755019
 H      5.8630685340    -3.7045403454     5.7379221624
 F      6.3426478459    -3.0360244809     5.3329786819
          8
Energy: -28.922103797740505 Kcal/mole
 H      5.1846989958    -5.6652862616     5.2918358888
 F      5.0879558716    -5.1482944741     6.0430011566
 H      6.0803394369    -5.5484631109     3.3600620867
 F      5.5970792779    -6.2136069752     3.7661806146
 H      6.7629788968    -3.5680979292     3.7941915363
 F      6.8688205975    -4.1081305140     3.0606717059
 H      5.8474219874    -3.6837874903     5.7457353929
 F      6.3115012203    -3.0143765257     5.3245365965
          8
Energy: -28.92725090774985 Kcal/mole
 H      5.1780293248    -5.6687695467     5.2934157138
 F      5.0883096822    -5.1481096939     6.0429173505
 H      6.1000456419    -5.5578245065     3.3688975918
 F      5.5960339093    -6.2131103748     3.7657119114
 H      6.7785341241    -3.5794725495     3.8236908832
 F      6.8977742161    -4.1156775484     3.0894191354
 H      5.8425219251    -3.6849215343     5.7384359125
 F      6.3117611573    -3.0143163673     5.3249238170
          8
Energy: -28.92696990288738 Kcal/mole
 H      5.1765284108    -5.6762531044     5.3076643620
 F      5.0702582380    -5.1384283049     6.0427426812
 H      6.1356634982    -5.5846789237     3.3897226943
 F      5.6486971722    -6.2440843002     3.8007425803
 H      6.7955362940    -3.5960115711     3.8232980485
 F      6.9062365919    -4.1318293750     3.0874082978
 H      5.8533305440    -3.6991754112     5.7367970950
 F      6.3363401797    -3.0364534719     5.3264431954
          8
Energy: -28.923371717495996 Kcal/mole
 H      5.1693764685    -5.6672771915     5.3001974055
 F      5.0706376320    -5.1389044564     6.0431387860
 H      6.1091564870    -5.5690764327     3.3695758189
 F      5.6230842726    -6.2259773340     3.7856335172
 H      6.7903279399    -3.5759873292     3.7966015568
 F      6.8989884056    -4.1188332839     3.0655747634
 H      5.8441269347    -3.6825203178     5.7206514152
 F      6.3220197136    -3.0141382902     5.3134991622
          8
Energy: -28.917617753057442 Kcal/mole
 H      5.1198114382    -5.6620578638     5.2810545372
 F      5.0053804741    -5.1133274813     6.0067883188
 H      6.0889453338    -5.5531460956     3.3719607445
 F      5.6241564276    -6.2268224016     3.7855070024
 H      6.7485458222    -3.5667982301     3.7894960393
 F      6.8372540939    -4.0875957520     3.0399696663
 H      5.8330888116    -3.6887816625     5.7172960886
 F      6.3274868040    -3.0313489761     5.3120284141
          8
Energy: -28.923737669354125 Kcal/mole
 H      5.1307269905    -5.6579668667     5.2653157142
 F      5.0269227998    -5.1316314322     6.0090123596
 H      6.0655338243    -5.5338792354     3.3506001192
 F      5.5947629460    -6.2092226551     3.7545494299
 H      6.7473163989    -3.5738736731     3.7942149313
 F      6.8373193119    -4.0872204161     3.0397193400
 H      5.8359029494    -3.6875612164     5.7226593731
 F      6.3273375205    -3.0314137179     5.3117439043
          8
Energy: -28.928286543254217 Kcal/mole
 H      5.1332474467    -5.6564108319     5.2645728682
 F      5.0267890954    -5.1317139762     6.0090517658
 H      6.0669123201    -5.5416405421     3.3394732597
 F      5.5946898199    -6.2088109357     3.7551396840
 H      6.7423418822    -3.5690231793     3.7902768183
 F      6.8375831986    -4.0874777235     3.0399282478
 H      5.8124829792    -3.6815452847     5.7129587539
 F      6.3016275801    -3.0202113816     5.3076637650
          8
Energy: -28.928589504296525 Kcal/mole
 H      5.1342540221    -5.6617124394     5.2684847114
 F      5.0267356989    -5.1314327382     6.0088442516
 H      6.0639052265    -5.5356705770     3.3457456166
 F      5.5948493393    -6.2091276285     3.7548069500
 H      6.7399365100    -3.5584109818     3.7843690097
 F      6.8366214454    -4.0840886107     3.0392488491
 H      5.8213251739    -3.6798966092     5.7210871648
 F      6.3059872567    -3.0156421799     5.3151835819
          8
Energy: -28.924017851615503 Kcal/mole
 H      5.1389046885    -5.6656117402     5.2725797853
 F      5.0286131381    -5.1328290517     6.0107311117
 H      6.0610616463    -5.5398743710     3.3308121832
 F      5.5945075931    -6.2108360665     3.7467769878
 H      6.7416393216    -3.5642632379     3.7886793141
 F      6.8365311152    -4.0837781620     3.0390201974
 H      5.8320955003    -3.6954380249     5.7281360314
 F      6.3135809957    -3.0279295766     5.3237931213
          8
Energy: -28.919990860372423 Kcal/mole
 H      5.1196615887    -5.6669032274     5.2709040551
 F      5.0296339401    -5.1327605412     6.0108200053
 H      6.0657683214    -5.5302577368     3.3398775054
 F      5.5881152659    -6.2046592250     3.7372679824
 H      6.7477976663    -3.5618108193     3.8040089044
 F      6.8351144970    -4.0737133924     3.0482175795
 H      5.8268281525    -3.6960732566     5.7207065516
 F      6.3138604163    -3.0278958790     5.3241872380
          8
Energy: -28.928284392207132 Kcal/mole
 H      5.1418833304    -5.6641871399     5.2720046063
 F      5.0284551280    -5.1329046234     6.0107616236
 H      6.0834077768    -5.5435140888     3.3481087751
 F      5.6145196601    -6.2144418889     3.7614957864
 H      6.7536990125    -3.5571081620     3.7949636284
 F      6.8470817080    -4.0779530891     3.0460382422
 H      5.8241011546    -3.6899470389     5.7275583468
 F      6.3140050773    -3.0282208607     5.3238237661
          8
Energy: -28.927411730831068 Kcal/mole
 H      5.1383061398    -5.6636692411     5.2692865224
 F      5.0232533375    -5.1302403095     6.0062433921
 H      6.0849926186    -5.5398352421     3.3559764495
 F      5.6144355879    -6.2146370432     3.7610784245
 H      6.7519120315    -3.5551648850     3.7933826903
 F      6.8471765032    -4.0780561754     3.0461221073
 H      5.8217678427    -3.6799775670     5.7246896814
 F      6.3077503583    -3.0163994402     5.3192589671
          8
Energy: -28.9252564565858 Kcal/mole
 H      5.1483730593    -5.6665621822     5.2730405984
 F      5.0227193107    -5.1300868457     6.0060442470
 H      6.0875580696    -5.5436616854     3.3526246759
 F      5.6142994967    -6.2144340592     3.7612562283
 H      6.7559303516    -3.5548680046     3.7954179184
 F      6.8473674882    -4.0830329142     3.0513950168
 H      5.8073235759    -3.6857864378     5.7137304692
 F      6.2971416261    -3.0189013968     5.3184690117
          8
Energy: -28.926990875343222 Kcal/mole
 H      5.1165510873    -5.6385345511     5.2554647422
 F      4.9814700030    -5.1059278261     5.9896119870
 H      6.0916070244    -5.5440289267     3.3567544351
 F      5.6140847090    -6.2144145779     3.7610371541
 H      6.7369418067    -3.5487193436     3.7884027737
 F      6.8483747866    -4.0833590865     3.0517671540
 H      5.7774826187    -3.6595135478     5.7059418897
 F      6.2696201153    -3.0003588389     5.3007200318
          8
Energy: -28.92802053814546 Kcal/mole
 H      5.1056350860    -5.6458070765     5.2588639543
 F      4.9820490717    -5.1055420354     5.9894316667
 H      6.0882314100    -5.5422978545     3.3556580860
 F      5.6142637775    -6.2145064073     3.7610953129
 H      6.7324737115    -3.5507554929     3.7891870081
 F      6.8486118087    -4.0832510735     3.0517255521
 H      5.7785609732    -3.6603727131     5.7058514964
 F      6.2695629111    -3.0003132622     5.3007248269
          8
Energy: -28.926977745938245 Kcal/mole
 H      5.1114981970    -5.6468651470     5.2606661643
 F      4.9817380472    -5.1054859072     5.9893360636
 H      6.0818675154    -5.5451524029     3.3437335544
 F      5.6146013674    -6.2143549801     3.7617278817
 H      6.7322445548    -3.5507787444     3.7839741285
 F      6.8396193280    -4.0798477145     3.0427280945
 H      5.7728662921    -3.6663173900     5.6938518894
 F      6.2621317110    -2.9997690536     5.2973400169
          8
Energy: -28.926390957291858 Kcal/mole
 H      5.1114371764    -5.6415956877     5.2567712806
 F      4.9817412842    -5.1057654399     5.9895426782
 H      6.0920838747    -5.5495243462     3.3483370152
 F      5.6140594132    -6.2141230586     3.7614836788
 H      6.7263147108    -3.5518854789     3.7838792335
 F      6.8399338925    -4.0797890048     3.0427331285
 H      5.7761646745    -3.6682902889     5.6945850108
 F      6.2619567394    -2.9996643958     5.2973011265
          8
Energy: -28.927730814857426 Kcal/mole
 H      5.1318606963    -5.6523139419     5.2630319094
 F      5.0081181220    -5.1181978296     5.9980807199
 H      6.0914447597    -5.5448798273     3.3551561071
 F      5.6140933167    -6.2143694396     3.7611219417
 H      6.7330585781    -3.5428272747     3.7812096791
 F      6.8458218430    -4.0778453255     3.0450513187
 H      5.7655886588    -3.6511686530     5.6966564024
 F      6.2503842768    -2.9862242225     5.2920441025
          8
Energy: -28.928388158740233 Kcal/mole
 H      5.1392917444    -5.6513186786     5.2636001946
 F      5.0077239221    -5.1182506260     5.9980505737
 H      6.0873838719    -5.5392064417     3.3510350630
 F      5.6103937809    -6.2054703570     3.7626925034
 H      6.7184807480    -3.5454088801     3.7806959587
 F      6.8465951632    -4.0777083773     3.0450785704
 H      5.7596023399    -3.6580723027     5.6932946015
 F      6.2379341582    -2.9920652503     5.2827799516
          8
Energy: -28.92836264347929 Kcal/mole
 H      5.1355969856    -5.6533304234     5.2644116188
 F      5.0079199205    -5.1181439076     5.9980075295
 H      6.0815840515    -5.5363368738     3.3490179049
 F      5.6107014479    -6.2056225810     3.7627995090
 H      6.7228936197    -3.5449351573     3.7811074899
 F      6.8463610706    -4.0777335072     3.0450567396
 H      5.7672608159    -3.6652308107     5.6904531971
 F      6.2375278937    -2.9916855080     5.2829306815
          8
Energy: -28.92758937468767 Kcal/mole
 H      5.1315163681    -5.6504410950     5.2616170883
 F      5.0081363878    -5.1182971798     5.9981557729
 H      6.0859666443    -5.5375369775     3.3521025167
 F      5.6104689615    -6.2055589182     3.7626358775
 H      6.7247497038    -3.5411984920     3.7786974019
 F      6.8462626096    -4.0779317286     3.0451845892
 H      5.7643546010    -3.6566064209     5.6953721795
 F      6.2283579133    -2.9804390552     5.2850215738
          8
Energy: -28.926994847132363 Kcal/mole
 H      5.1435804567    -5.6471706263     5.2613868194
 F      5.0074964158    -5.1184706706     5.9981679882
 H      6.0843195748    -5.5384134328     3.3487871975
 F      5.6105563348    -6.2055124243     3.7628117475
 H      6.7119115029    -3.5407420605     3.7761134039
 F      6.8469436465    -4.0779559413     3.0453216644
 H      5.7458381191    -3.6448174140     5.6923601329
 F      6.2169713793    -2.9770265250     5.2764541583
          8
Energy: -28.928982979725163 Kcal/mole
 H      5.1334662291    -5.6556997710     5.2657779341
 F      5.0080329522    -5.1180182191     5.9979350497
 H      6.1042102960    -5.5400704639     3.3599465681
 F      5.6277845448    -6.2104983823     3.7654510809
 H      6.7163592267    -3.5412404556     3.7772861862
 F      6.8467077051    -4.0779295026     3.0452594510
 H      5.7501700649    -3.6499144256     5.6890125639
 F      6.2167415796    -2.9767561403     5.2766317391
          8
Energy: -28.930754506379543 Kcal/mole
 H      5.1450435332    -5.6542467555     5.2667929426
 F      5.0074188030    -5.1180952983     5.9978812058
 H      6.0871392413    -5.5331645377     3.3518333289
 F      5.6286901248    -6.2108647257     3.7658814695
 H      6.6897230051    -3.5281233628     3.7684149387
 F      6.8190376062    -4.0635633103     3.0352909405
 H      5.7492648719    -3.6498830096     5.6880374412
 F      6.2167895980    -2.9767578069     5.2766834671
          8
Energy: -28.929664265053447 Kcal/mole
 H      5.1536718315    -5.6585430242     5.2744981924
 F      5.0321140897    -5.1268946187     6.0116974113
 H      6.0899287562    -5.5354863322     3.3511391081
 F      5.6285421475    -6.2107415598     3.7659182963
 H      6.6991584769    -3.5267547896     3.7736416402
 F      6.8264867652    -4.0615132131     3.0396730200
 H      5.7627692815    -3.6534110351     5.6972546497
 F      6.2160732203    -2.9765706533     5.2761945155
          8
Energy: -28.929488298607538 Kcal/mole
 H      5.1575293135    -5.6599568401     5.2761679106
 F      5.0319094591    -5.1268196190     6.0116088366
 H      6.0908262729    -5.5371439479     3.3494470436
 F      5.6284945363    -6.2106536272     3.7660080564
 H      6.6946217123    -3.5232622828     3.7702783888
 F      6.8267274300    -4.0616984825     3.0398514327
 H      5.7555816788    -3.6530900997     5.6899001640
 F      6.2164545060    -2.9765876782     5.2765846539
          8
Energy: -28.929921988385416 Kcal/mole
 H      5.1576490637    -5.6613356348     5.2771900026
 F      5.0319031067    -5.1267464771     6.0115546170
 H      6.0959412978    -5.5394727380     3.3514035935
 F      5.6282231961    -6.2105300902     3.7659042659
 H      6.6942657976    -3.5267280730     3.7727556607
 F      6.8267463105    -4.0615146304     3.0397200192
 H      5.7584681377    -3.6532469238     5.6928404044
 F      6.2163013860    -2.9765793590     5.2764286810
          8
Energy: -28.930199409569752 Kcal/mole
 H      5.1561892415    -5.6595910887     5.2756754283
 F      5.0319805469    -5.1268390213     6.0116349616
 H      6.0924059641    -5.5387259460     3.3496879278
 F      5.6271028250    -6.2096492942     3.7671131901
 H      6.6956190712    -3.5273610940     3.7734600971
 F      6.8266745225    -4.0614810501     3.0396826504
 H      5.7604121430    -3.6551430093     5.6918861772
 F      6.2161982610    -2.9764787761     5.2764793005
          8
Energy: -28.92885350705035 Kcal/mole
 H      5.1543269285    -5.6609066828     5.2763174804
 F      5.0320793383    -5.1267692320     6.0116009023
 H      6.0918560954    -5.5327368286     3.3588528113
 F      5.6271319942    -6.2099670030     3.7666270142
 H      6.7027274347    -3.5289746819     3.7758619510
 F      6.8262974402    -4.0613954530     3.0395552376
 H      5.7542868029    -3.6523262249     5.6897036547
 F      6.2165231961    -2.9766282000     5.2765950783
          8
Energy: -28.929637522882643 Kcal/mole
 H      5.1556950680    -5.6627595268     5.2778965056
 F      5.0320067616    -5.1266709429     6.0115171386
 H      6.0886037455    -5.5312884367     3.3575702128
 F      5.6273045239    -6.2100438369     3.7666950531
 H      6.6967780718    -3.5265785974     3.7730960178
 F      6.8266130401    -4.0615225597     3.0397019640
 H      5.7548669170    -3.6521610998     5.6906213059
 F      6.2164924224    -2.9766369595     5.2765463990
          8
Energy: -28.928989155231307 Kcal/mole
 H      5.1600790322    -5.6603174994     5.2768699753
 F      5.0317742025    -5.1268004868     6.0115715937
 H      6.0881264901    -5.5304646477     3.3584008497
 F      5.6273298412    -6.2100875370     3.7666509897
 H      6.7006818490    -3.5257650051     3.7731822526
 F      6.8264059538    -4.0615657189     3.0396973894
 H      5.7555445864    -3.6455839860     5.6944085913
 F      6.2186196598    -2.9726650845     5.2777185045
          8
Energy: -28.929652719167507 Kcal/mole
 H      5.1497353226    -5.6611603148     5.2757537025
 F      5.0323229123    -5.1267557774     6.0116308094
 H      6.0953432929    -5.5363674110     3.3568353487
 F      5.6269470065    -6.2097744090     3.7667340359
 H      6.7054357857    -3.5272245507     3.7749853414
 F      6.8332087679    -4.0645690492     3.0429853722
 H      5.7614130772    -3.6494017847     5.6947028862
 F      6.2183083500    -2.9724625591     5.2777028929
          8
Energy: -28.930392063961563 Kcal/mole
 H      5.1612371696    -5.6558923410     5.2705262758
 F      5.0365265708    -5.1236741692     6.0067871563
 H      6.0938183281    -5.5362391878     3.3553094048
 F      5.6270279023    -6.2097812110     3.7668149837
 H      6.7036554083    -3.5275313993     3.7748974681
 F      6.8333032128    -4.0645527716     3.0429900337
 H      5.7607776292    -3.6491459978     5.6944211840
 F      6.2183420590    -2.9724761280     5.2777178365
          8
Energy: -28.93065867017941 Kcal/mole
 H      5.1584231680    -5.6558312509     5.2700113250
 F      5.0366758471    -5.1236774099     6.0068144733
 H      6.0938748648    -5.5366757425     3.3546597832
 F      5.6270249032    -6.2097580527     3.7668494446
 H      6.7025230228    -3.5284264447     3.7753519538
 F      6.8333632832    -4.0645052915     3.0429659243
 H      5.7604333086    -3.6510672984     5.6909027115
 F      6.2183603244    -2.9723742074     5.2779044834
          8
Energy: -28.930669447599257 Kcal/mole
 H      5.1571302490    -5.6573322745     5.2702385261
 F      5.0302215369    -5.1239415441     6.0052742447
 H      6.0910863478    -5.5359184721     3.3527533695
 F      5.6271728276    -6.2097982242     3.7669505755
 H      6.7023990315    -3.5297722870     3.7763129314
 F      6.8333698607    -4.0644338977     3.0429149466
 H      5.7586413234    -3.6480056644     5.6939194159
 F      6.2184553851    -2.9725366200     5.2777444542
          8
Energy: -28.931198187189835 Kcal/mole
 H      5.1532466551    -5.6546046884     5.2720765266
 F      5.0255394207    -5.1205238600     6.0064725581
 H      6.0929772073    -5.5358911947     3.3549261158
 F      5.6270725218    -6.2097996712     3.7668353163
 H      6.7012508317    -3.5278277280     3.7746846985
 F      6.8334307700    -4.0645370520     3.0430013206
 H      5.7572558470    -3.6500295807     5.6890663546
 F      6.2185288814    -2.9724292560     5.2780018978
          8
Energy: -28.931355138878956 Kcal/mole
 H      5.1514338754    -5.6545555093     5.2717279746
 F      5.0256355844    -5.1205264688     6.0064910479
 H      6.0920323691    -5.5370208319     3.3520228146
 F      5.6271226433    -6.2097397466     3.7669893297
 H      6.7039367011    -3.5280575515     3.7753329558
 F      6.8332882908    -4.0645248604     3.0429669321
 H      5.7580566326    -3.6488698844     5.6918640291
 F      6.2184864016    -2.9724907752     5.2778534877
          8
Energy: -28.931463204867896 Kcal/mole
 H      5.1516099656    -5.6550490758     5.2721171545
 F      5.0256262433    -5.1205002863     6.0064704028
 H      6.0938436843    -5.5363497144     3.3551573064
 F      5.6270265572    -6.2097753478     3.7668230522
 H      6.7033004487    -3.5270960073     3.7745147997
 F      6.8333220426    -4.0645758681     3.0430103333
 H      5.7573388510    -3.6490520333     5.6907659572
 F      6.2185244782    -2.9724811126     5.2779117379
          8
Energy: -28.931608282450924 Kcal/mole
 H      5.1518074282    -5.6548850480     5.2720316845
 F      5.0256157683    -5.1205089876     6.0064749368
 H      6.0926533089    -5.5360859641     3.3542418855
 F      5.6270897039    -6.2097893391     3.7668716132
 H      6.7028478430    -3.5287498727     3.7756465063
 F      6.8333460523    -4.0644881344     3.0429502989
 H      5.7573587115    -3.6487477348     5.6912863525
 F      6.2185234247    -2.9724972549     5.2778841321
