          8
Energy: -26.863457230619417 Kcal/mole
 H     -3.9435680989     2.9407509445     5.0260044251
 F     -3.7534475290     3.3458868517     5.8263843758
 H     -5.4084659433     1.7177070712     4.1403102038
 F     -4.6386345458     2.0640505873     3.7821275853
 H     -6.4862941654     1.7003208659     5.9469768671
 F     -6.6770373495     1.2961901144     5.1462369759
 H     -5.0208783738     2.9224643280     6.8330053526
 F     -5.7900916972     2.5751081741     7.1915350798
