          8
Energy: -26.8632337776705 Kcal/mole
 H     -3.9440222531     2.9352364364     5.0264187278
 F     -3.7533230667     3.3396137170     5.8270446300
 H     -5.4104869297     1.7148016529     4.1400930688
 F     -4.6404515529     2.0595359265     3.7807982051
 H     -6.4848332435     1.6976167408     5.9495943725
 F     -6.6773352601     1.2961761594     5.1479227232
 H     -5.0172139033     2.9156051000     6.8366718782
 F     -5.7854944449     2.5679640687     7.1969214066
