          8
Energy: -26.62455184252684 Kcal/mole
 H      1.7537832651    -4.1223968682    -4.1275210546
 F      0.9151970795    -4.4197257423    -4.3494619248
 H      2.6852254441    -3.3172493960    -2.4316708997
 F      3.0355936561    -3.4859638208    -3.2621325538
 H      0.7754735529    -3.2314795264    -1.4768877318
 F      1.6069589498    -3.0979137727    -1.1140086554
 H     -0.2331886751    -3.9613600359    -3.1656566466
 F     -0.5991983399    -3.6018979853    -2.4055823348
          8
Energy: -25.876567450377564 Kcal/mole
 H     -1.1451606305    -4.1940714962    -3.6883439964
 F     -1.5912597800    -4.1995052193    -2.8871854456
 H      0.8475311843    -3.7212467434    -4.4520779720
 F      0.0420308026    -3.8018231524    -4.8828512039
 H      1.5349552802    -3.1748635683    -2.5518931822
 F      1.9935375738    -3.2664876055    -3.3406873986
 H     -0.5269568179    -3.6652030257    -1.8070427961
 F      0.2569746243    -3.3672086673    -1.4361791336
          8
Energy: -26.06287184036151 Kcal/mole
 H      0.2445838851    -5.6230888834    -2.4277791314
 F      0.7445783716    -5.4893388379    -1.6708079042
 H     -0.8419408627    -4.6113342255    -3.9104880397
 F     -0.7915653473    -5.4939660072    -3.6669465743
 H      0.0172968457    -2.8437667665    -3.1797549010
 F     -0.4143509929    -2.9965347826    -3.9742554212
 H      0.8521060200    -3.8089105552    -1.4422777315
 F      0.7195908611    -2.9079266924    -1.5497803432
          8
Energy: -26.0341804004577 Kcal/mole
 H     -2.5167493301    -5.8883688067    -2.8891581302
 F     -2.6842681589    -5.8981610136    -1.9876424317
 H     -2.5765829785    -4.4927293036    -4.6105596759
 F     -2.2425985669    -5.3466750762    -4.5996038406
 H     -3.1811065387    -2.8792926448    -3.3338823115
 F     -2.9957235695    -2.8951171800    -4.2318086664
 H     -3.2896540308    -4.3033852068    -1.6412367690
 F     -3.4952528921    -3.4106007274    -1.6806573433
          8
Energy: -26.12590934257065 Kcal/mole
 H     -3.9371309005    -5.2387989630    -2.7630449482
 F     -3.5712256028    -4.4171189812    -2.9414947191
 H     -4.6715531479    -6.5906548276    -1.3770378065
 F     -4.6529866167    -6.6363479616    -2.2927104671
 H     -4.4653747206    -5.0620442952     0.1099605981
 F     -4.7741436376    -5.9250842156     0.1366598801
 H     -3.5569877979    -3.7302067766    -1.3474290337
 F     -3.7164851282    -3.6767145405    -0.4459923015
          8
Energy: -26.47948433596426 Kcal/mole
 H     -6.3854217161    -6.2586936607    -1.9394482136
 F     -6.5955801193    -5.5078962266    -2.4221755263
 H     -5.9160785645    -6.8396361679     0.1352914078
 F     -5.8902381269    -7.2752294522    -0.6712318482
 H     -6.1244158015    -4.8211934213     0.8442379957
 F     -6.0834399447    -5.5898366982     1.3426329114
 H     -6.3261591203    -4.2581076286    -1.2755620615
 F     -6.2053513519    -3.7445622997    -0.5255182773
          8
Energy: -26.42780051339014 Kcal/mole
 H     -3.4774329243    -4.8804878123    -0.4196175411
 F     -3.4914732296    -4.4509633741    -1.2296796540
 H     -4.7867598587    -5.7969973216     0.9173283852
 F     -3.8702349992    -5.8265113941     0.9170098831
 H     -6.3761790219    -5.1538411920    -0.3443292538
 F     -6.3649246310    -5.6689802388     0.4142181087
 H     -5.0761374957    -4.3166420265    -1.6522171769
 F     -5.9863369403    -4.3343534679    -1.7622729623
          8
Energy: -25.719080969342258 Kcal/mole
 H     -2.7866080866    -5.5119264494    -1.5894425774
 F     -2.8977389182    -4.9788812660    -2.3272784472
 H     -3.7683810350    -6.6349228544    -0.0984378062
 F     -2.8977097048    -6.3756484145    -0.2233265552
 H     -5.5615454717    -6.1051549444    -1.0017609487
 F     -5.4785610547    -6.5369879646    -0.1970729164
 H     -4.5929742275    -5.1224839571    -2.6984840945
 F     -5.4153855460    -5.5225868809    -2.6318037101
          8
Energy: -26.08276928930175 Kcal/mole
 H     -5.2783789348    -4.3844304172    -1.7054422631
 F     -5.7045805501    -3.6461064177    -2.0432570865
 H     -5.0036257840    -5.3282529505     0.0982447301
 F     -4.6242856535    -5.5815755423    -0.6972536859
 H     -6.3157323477    -4.1282309833     1.0915391756
 F     -5.7543156738    -4.7858851732     1.3968116517
 H     -6.5772401226    -3.1270067693    -0.8260570972
 F     -7.0352176561    -2.9622209374    -0.0488883842
          8
Energy: -26.057330385981373 Kcal/mole
 H     -6.3702886691    -4.7616174966     0.5092513716
 F     -6.9982502417    -4.1422273756     0.7600683194
 H     -4.4067647116    -5.3956687686     0.8468426458
 F     -5.0159325286    -5.7596412027     0.2660435084
 H     -4.5291016824    -3.5685387303     2.3270724754
 F     -3.9411500531    -4.2570623935     2.1816866204
 H     -6.3006038367    -3.0844078937     1.7743472407
 F     -5.7659160576    -2.5712142460     2.3143752574
          8
Energy: -26.22459237726173 Kcal/mole
 H     -6.7976843279    -4.0402575151     1.2645739661
 F     -7.4156025544    -3.5360370313     1.7171529858
 H     -5.3032677434    -4.0081051594    -0.0974205266
 F     -5.5390006796    -4.7577538324     0.3751742786
 H     -5.8014424291    -1.8872436138    -0.3392767728
 F     -5.3035644588    -2.4395463563    -0.8759034654
 H     -7.1063616931    -1.9245586813     1.2360418575
 F     -6.6951652257    -1.2075623529     0.8388986465
          8
Energy: -26.34360148775741 Kcal/mole
 H     -6.4221634832    -3.8399270441     1.9976223234
 F     -6.2242884236    -2.9453302064     1.9597943093
 H     -6.7671293054    -5.5365803379     0.9694043107
 F     -6.7750215632    -5.4872258505     1.8850411639
 H     -6.6952229172    -4.1759568774    -0.8174365290
 F     -6.7289001951    -5.0897361264    -0.7484269284
 H     -6.4726321453    -2.5097356396     0.3406640411
 F     -6.6201530058    -2.5456407969    -0.5636795968
          8
Energy: -25.816572516614144 Kcal/mole
 H     -6.7608765918    -4.0682218870    -0.0758621258
 F     -6.4450052307    -3.2096200015    -0.1384487500
 H     -5.7130094801    -5.9981628052    -0.2857646889
 F     -6.5518424611    -5.8228436435     0.0405961875
 H     -4.0364804004    -5.0654042296    -0.9148008034
 F     -4.2502841810    -5.9430249005    -1.0727846680
 H     -4.8414113216    -3.2307038440    -0.2254177717
 F     -3.9910587658    -3.4564813823    -0.4839018796
          8
Energy: -26.402528571497868 Kcal/mole
 H     -3.8292196494    -3.6342665035     2.2748132218
 F     -3.6388994229    -2.8788464907     1.7910696786
 H     -4.5836517427    -5.6929660572     1.9225292113
 F     -4.3970187605    -5.2233220541     2.6877034661
 H     -4.6068488981    -5.1960544361    -0.0945714816
 F     -4.8395122315    -5.9791012524     0.3220751993
 H     -4.0301738039    -3.2489074070     0.2168039869
 F     -4.3191882531    -3.6462312442    -0.5574656151
          8
Energy: -26.287674615557137 Kcal/mole
 H     -3.0237237922    -5.8558958501     1.6450214630
 F     -2.8708199993    -6.0224660861     0.7563349116
 H     -4.5128240226    -4.7960803282     2.7507303220
 F     -3.7373673074    -5.1998238317     3.0274017270
 H     -5.4958393745    -4.1249906166     1.0197663832
 F     -5.7169637394    -4.0868399061     1.9088881625
 H     -3.9098725772    -5.0064700271    -0.2611044176
 F     -4.6116427037    -4.4551254281    -0.4718811307
          8
Energy: -26.1571494151261 Kcal/mole
 H     -3.2590533638    -5.7128734009     4.1619067841
 F     -2.6857413188    -5.5436274950     3.4665233485
 H     -5.1681955469    -5.7859728131     4.7955416507
 F     -4.4596388353    -6.1974464885     5.2072767608
 H     -5.5996550131    -4.4429334407     3.1473764427
 F     -6.1312085771    -4.8312415099     3.7857780812
 H     -3.5486224450    -4.5099061087     2.4240886665
 F     -4.2542461767    -4.0190196333     2.1046913944
          8
Energy: -26.154663173608867 Kcal/mole
 H     -2.9000564989    -6.0584938191     1.5445219122
 F     -2.4705056630    -5.3597574023     1.1344700872
 H     -4.8449390612    -6.4417925458     2.4389568046
 F     -4.0682323737    -6.9206890498     2.3479960440
 H     -5.4290106013    -4.5944403942     1.9734619022
 F     -5.9576767108    -5.2889275049     2.2546892085
 H     -3.5102054091    -4.1321890373     1.2757793959
 F     -4.2661037063    -3.6160017678     1.3310737634
          8
Energy: -26.530537577151847 Kcal/mole
 H     -1.9181995923    -5.7621522257     3.6812052495
 F     -1.4544187970    -4.9962752457     3.8792679302
 H     -3.5406614807    -6.5301508678     2.5190488216
 F     -2.8932665966    -6.9377681707     3.0246346188
 H     -3.8859632927    -4.6156354645     1.6898950781
 F     -4.4435241144    -5.3422418063     1.7352619633
 H     -2.1148879105    -4.0045187786     2.6558901742
 F     -2.5594415709    -3.6316132306     1.9458179980
          8
Energy: -26.425921800135654 Kcal/mole
 H     -3.4652547377    -4.3805004601     4.2089648200
 F     -2.8947580129    -3.6634099221     4.2436584414
 H     -5.5058243777    -4.8606677358     3.4147108668
 F     -4.8689551908    -5.3723699656     3.8311811139
 H     -5.7409106934    -2.8219707247     2.8134443872
 F     -6.2968829343    -3.5384295040     2.6775374895
 H     -3.8339103694    -2.3481751276     3.5891336559
 F     -4.5216753710    -1.7996721935     3.3302652840
          8
Energy: -26.142367684620694 Kcal/mole
 H     -1.9411167211    -4.2018957490     2.8983774995
 F     -1.6995993340    -4.1998912566     3.7829985109
 H     -3.3160428416    -3.7341753364     1.4156374998
 F     -2.4550189971    -4.0460265555     1.3679326127
 H     -4.5659756079    -2.9247662582     2.7084066803
 F     -4.7674132317    -3.1396957234     1.8400074584
 H     -2.9623731758    -3.1714366987     4.3186320349
 F     -3.7343975775    -2.6870808504     4.2173071348
          8
Energy: -26.516773409490412 Kcal/mole
 H     -3.6663692875    -2.3498239062     3.9901707986
 F     -3.4554968034    -1.8098630873     4.7007087002
 H     -3.9730818448    -4.3581971508     3.4337786524
 F     -4.0657136956    -3.5739765576     2.9676173054
 H     -3.7719137726    -5.0477784108     5.3321776114
 F     -3.8808592737    -5.5501958907     4.5728380604
 H     -3.4985175274    -2.9282210790     5.8925800927
 F     -3.4648488985    -3.7042252780     6.3799946047
          8
Energy: -26.102882425189307 Kcal/mole
 H     -4.6762563683    -1.5462007102     3.0047727116
 F     -4.6571820741    -0.9514812330     3.7025075572
 H     -4.0566070083    -3.6691793888     2.8670642663
 F     -4.5329502814    -3.1274501591     2.3009233581
 H     -3.5368782129    -3.8620941522     4.7468981589
 F     -3.4331501627    -4.5085004672     4.1048013068
 H     -4.0787563774    -1.8066797255     5.0320685706
 F     -3.8741357236    -2.4922747838     5.6056353096
          8
Energy: -26.726723616045575 Kcal/mole
 H     -2.9573515972    -1.1118172473     2.7576716237
 F     -2.6358016411    -0.2899852112     3.0068437132
 H     -3.3961726999    -3.0095378655     3.6785729035
 F     -3.5661269803    -2.6856306379     2.8376872689
 H     -2.8230318987    -2.2668278608     5.5678717020
 F     -3.0139589230    -3.1284497377     5.3187861493
 H     -2.4556163980    -0.3519775997     4.7017555873
 F     -2.4674941096    -0.6263979178     5.5766506719
          8
Energy: -26.58296431796896 Kcal/mole
 H     -2.0646585840    -2.3114988899     3.5228269254
 F     -1.5466406738    -1.5553135407     3.4958054091
 H     -2.9964339139    -3.6619707904     4.8274400661
 F     -2.9582983018    -3.6627508066     3.9112337211
 H     -2.3765881433    -2.5933160464     6.4876915808
 F     -2.7558372470    -3.4281373038     6.4992061610
 H     -1.6093723525    -1.1506789049     5.0865919588
 F     -1.7225855575    -1.1116597384     5.9957395128
          8
Energy: -26.56190527640058 Kcal/mole
 H     -1.9557589957    -2.0228028510     2.4977578928
 F     -1.1420527498    -1.7445125561     2.1794409795
 H     -2.8763456397    -3.0191667416     4.1795538229
 F     -3.2678402161    -2.6386069212     3.4428074488
 H     -0.9340043410    -3.1146261973     5.1170153384
 F     -1.7416007964    -3.5113450224     5.2939083540
 H     -0.1620535437    -1.9624006084     3.5323835218
 F      0.2163084283    -2.1561100294     4.3449152924
          8
Energy: -26.412593206244452 Kcal/mole
 H     -3.9269079269    -2.1890158016     2.9724873679
 F     -4.1912839302    -1.4265922665     3.4080383777
 H     -2.8883627088    -3.9346998502     3.3531775047
 F     -3.4373901310    -3.7555641675     2.6408796058
 H     -2.4961360873    -3.3100788104     5.3562890082
 F     -2.1676225703    -4.0059173562     4.8575139212
 H     -3.6801277652    -1.5540638304     4.9485610098
 F     -3.2978370166    -1.7928999561     5.7471222714
          8
Energy: -26.597349131833454 Kcal/mole
 H     -4.8690184399    -3.9808589615     3.8012403023
 F     -5.4809787368    -3.3426459970     4.0442995685
 H     -2.8461673828    -4.2326755415     3.6229791132
 F     -3.5160190630    -4.8452638575     3.4928895993
 H     -2.6254893334    -2.1531868003     4.0569772714
 F     -1.9875628155    -2.8067935067     3.9748978522
 H     -4.6909231870    -1.7979457024     4.0797918757
 F     -3.9857061919    -1.2118288292     4.0747917916
          8
Energy: -26.289277825817663 Kcal/mole
 H     -5.1100755369    -3.7064016985     4.2775399298
 F     -5.5026180776    -3.1774240006     4.9154912986
 H     -3.1906150000    -4.0026623643     3.3131768218
 F     -3.9541660022    -4.5075769346     3.2589537294
 H     -2.6700529776    -2.1156435647     4.2308452848
 F     -2.2364291271    -2.6928593852     3.6654416655
 H     -4.4216748116    -1.9505273761     5.2020765848
 F     -3.7418656960    -1.3370438413     5.1532245728
          8
Energy: -26.478289419668954 Kcal/mole
 H     -4.8960954543    -2.2044422277     2.3403488515
 F     -5.1666836371    -1.3282762778     2.3424137044
 H     -3.1880273943    -3.4793548865     2.8761415925
 F     -4.0278011134    -3.6668432884     2.5590971164
 H     -1.9308503629    -1.9151326632     3.3964037595
 F     -1.7360468919    -2.8083241584     3.3246433207
 H     -3.7309636889    -0.6646842956     2.9028005912
 F     -2.8986227454    -0.4642839974     3.2313386776
          8
Energy: -26.749354987622752 Kcal/mole
 H     -3.4162493086    -2.4033024134     0.2763810364
 F     -3.8508291100    -1.6070481793     0.4105771275
 H     -1.7459134127    -3.4276988940     0.9157603825
 F     -2.3626410958    -3.6578197999     0.2773401968
 H     -1.2165432949    -1.8520427349     2.2631311780
 F     -0.8452627874    -2.6787019103     2.1228657421
 H     -2.8929020610    -0.8143963894     1.5477768048
 F     -2.2539840122    -0.5320893731     2.1418941968
          8
Energy: -26.46072293122404 Kcal/mole
 H     -3.0938052773    -1.7686154267     1.1196223515
 F     -2.7349474955    -0.9818944101     0.8143681387
 H     -3.0341944239    -2.9012061049     2.7527895160
 F     -3.5788543153    -3.0418840205     2.0286042311
 H     -1.5704535694    -1.6213057832     3.5582329751
 F     -1.9196069201    -2.4007184968     3.8921442801
 H     -1.5888592739    -0.4518982778     1.9179730958
 F     -1.0138461581    -0.3269975363     2.6212857726
          8
Energy: -26.571261352535203 Kcal/mole
 H     -3.5439754306    -0.6063045491     2.1233330021
 F     -3.5920362848     0.2633412088     2.4102047682
 H     -2.7962342333    -2.5283811105     2.6556194577
 F     -3.3268465855    -2.2495505591     1.9616503984
 H     -1.8810289901    -1.7709603906     4.3040215985
 F     -2.0225306866    -2.6558356814     4.1094400228
 H     -2.4817101209     0.1963307181     3.6874086798
 F     -1.8646786711    -0.0730089212     4.3099979093
          8
Energy: -26.7230541095376 Kcal/mole
 H     -4.3682892229    -1.0063760579     3.4520492885
 F     -4.3603554344    -0.1802817456     3.8500370298
 H     -3.1567177076    -2.7915631907     3.4072878614
 F     -3.9134611484    -2.5590314936     2.9445164549
 H     -1.8115066555    -1.9028249374     4.8495296709
 F     -1.8373513046    -2.7331682689     4.4612630023
 H     -3.0364471523    -0.1627905265     4.8520082000
 F     -2.2685331673    -0.3386683051     5.3213312429
          8
Energy: -26.66285304920848 Kcal/mole
 H     -5.7975529982    -1.2334870963     3.8338204484
 F     -6.1132612090    -0.6195063672     4.4373475729
 H     -4.3478823845    -2.8114839437     3.7084120147
 F     -4.9829580273    -2.4975945815     3.1261394014
 H     -3.8007053760    -2.4620935255     5.6860052447
 F     -3.3884545558    -3.0257645932     5.0916878306
 H     -5.4109359243    -1.0823256417     5.8947547646
 F     -4.8700082478    -1.4851253968     6.5160748159
          8
Energy: -26.703740806308844 Kcal/mole
 H     -6.2382897615    -2.1520596684     4.1685437254
 F     -6.2254012663    -1.3760998032     4.6570201058
 H     -5.5256994400    -4.1537554704     4.3575397350
 F     -6.0457847273    -3.7517064514     3.7181987616
 H     -4.4644521275    -3.6077294555     6.0975631502
 F     -4.6187251218    -4.4504784562     5.7706641365
 H     -5.0292450051    -1.6112228025     5.7998219860
 F     -4.3917755312    -1.9745232916     6.3498532800
          8
Energy: -26.50675628205002 Kcal/mole
 H     -6.5636436164    -2.3937620921     3.2883738114
 F     -6.0607976542    -1.6757973213     3.0190013439
 H     -6.5748068371    -3.8720524326     4.8222522544
 F     -7.2189366933    -3.6597954343     4.2050548022
 H     -4.5791545599    -3.2397224386     5.3467985213
 F     -5.0768975536    -3.9066397750     5.7319766342
 H     -4.6892370713    -1.6427090579     3.9677866087
 F     -4.0217799311    -1.8363767186     4.5660196763
          8
Energy: -26.594321301285987 Kcal/mole
 H     -6.2610726052    -2.3518668706     2.7613599722
 F     -5.4620039634    -2.1195092369     2.3761480361
 H     -6.8625820522    -3.1177896665     4.6226902445
 F     -7.3882091993    -2.8714818188     3.9128046577
 H     -4.7293893402    -3.1901776071     5.1347659344
 F     -5.4931227361    -3.4508411743     5.5702596824
 H     -4.1968821336    -2.4281252135     3.3851996487
 F     -3.6318366132    -2.6249431844     4.0800919039
          8
Energy: -26.70353315354052 Kcal/mole
 H     -6.2172666086    -1.4329508216     2.7035666644
 F     -5.8473683715    -0.5981240457     2.7879973959
 H     -6.1658309552    -3.3009918524     3.6654201570
 F     -6.5940923443    -3.0426080830     2.8968376889
 H     -5.0011901957    -2.4418846151     5.2181671217
 F     -5.1790914868    -3.3165780586     5.0080445137
 H     -5.1247711031    -0.5545649442     4.3214391048
 F     -4.8460693701    -0.7804950357     5.1653407210
          8
Energy: -26.55965298948462 Kcal/mole
 H     -5.9908685357    -1.3121991695     2.1466497882
 F     -5.3883658486    -0.7990488601     1.6834475947
 H     -5.9360964812    -2.9360745663     3.5684925044
 F     -6.6399496143    -2.4334052997     3.2638560398
 H     -3.8698700357    -2.7934492063     3.6558668055
 F     -4.3761449451    -3.4471694532     4.0523823220
 H     -3.9273651003    -1.1177632787     2.4138323987
 F     -3.2380111939    -1.4342483691     2.9291161839
          8
Energy: -26.674615969719753 Kcal/mole
 H     -5.3009486262    -0.7586509521     2.9149044456
 F     -5.2494440504    -0.5161927037     2.0320396335
 H     -4.5581144673    -2.3031353615     4.1830577925
 F     -5.1814944746    -1.6550443561     4.3626807734
 H     -3.6573898901    -3.2886531278     2.5746587043
 F     -3.5133780486    -3.4170391401     3.4711332557
 H     -4.5163667841    -1.8008445385     1.2492821523
 F     -4.1151627561    -2.6024002523     1.0558066617
          8
Energy: -26.585904109316544 Kcal/mole
 H     -5.5570247376    -0.9182238522     3.2009841048
 F     -5.6090580292    -0.6290332349     2.3323355433
 H     -4.9145118412    -2.4380636744     4.5026035729
 F     -5.4030953828    -1.6887655565     4.7044140120
 H     -4.4013647357    -3.5938790395     2.7779549853
 F     -4.2189702073    -3.7568114497     3.6617390459
 H     -5.1687644371    -2.0178136716     1.5026045050
 F     -4.8768126919    -2.8673578266     1.3184092086
          8
Energy: -26.77866169744064 Kcal/mole
 H     -5.8845033073    -1.1432499603     2.9709034484
 F     -6.2507226346    -1.1261499885     2.1303798048
 H     -4.6664353652    -2.2735547145     4.2326887080
 F     -5.0538874589    -1.4535286521     4.3680664462
 H     -4.4162038158    -3.6878697147     2.6947148082
 F     -4.0986023120    -3.7062749545     3.5547610465
 H     -5.5592557778    -2.4673876937     1.4298899577
 F     -5.1334359688    -3.2628237884     1.2660366405
          8
Energy: -26.785229597886087 Kcal/mole
 H     -5.0193490258    -0.8058364638     2.0901351715
 F     -5.6324245334    -1.0265411759     1.4449089693
 H     -3.6506648719    -1.6718551728     3.4030503107
 F     -3.8314039126    -0.7897166628     3.2296892761
 H     -4.3589524020    -3.5632353266     2.7578127070
 F     -3.7040995650    -3.3550131272     3.3650196549
 H     -5.7139060701    -2.6805973689     1.4449350018
 F     -5.5660925262    -3.5700671460     1.6119190487
          8
Energy: -26.78767110475559 Kcal/mole
 H     -4.3651452385    -0.7468862282     1.4525448947
 F     -4.9289939862    -1.0902892097     0.8161189507
 H     -3.7275882656    -1.1011915667     3.3966522623
 F     -3.4285981232    -0.4634877888     2.8094318724
 H     -4.9686906474    -2.8622241737     3.4008667789
 F     -4.5217068482    -2.4385796439     4.0802928570
 H     -5.4099889714    -2.5842084849     1.4070092740
 F     -5.5987639722    -3.3168548682     1.9251620276
          8
Energy: -26.615581653349153 Kcal/mole
 H     -4.1481506245    -0.9557461674     1.6307342859
 F     -4.6529791357    -1.2978263106     0.9458851420
 H     -3.8744603946    -1.0789119154     3.6719155589
 F     -3.3713768930    -0.5982853050     3.0745931570
 H     -5.3692252353    -2.5521667723     3.7324561737
 F     -4.9545887840    -2.0964361620     4.4116286291
 H     -5.6026275458    -2.6035899322     1.5971260038
 F     -5.9205530681    -3.1547594284     2.2574475533
          8
Energy: -26.774293319225706 Kcal/mole
 H     -3.9720635855    -0.9153807341     1.4777519398
 F     -4.4328164733    -1.3295378048     0.8016826407
 H     -3.9752225922    -0.8073664910     3.5357929280
 F     -3.3905782040    -0.4162506886     2.9474831725
 H     -5.6383144095    -2.1343193680     3.5724459368
 F     -5.2559178918    -1.6565394225     4.2553721605
 H     -5.5222957484    -2.3388627415     1.5164377878
 F     -6.0770652961    -2.7748067226     2.1021617793
          8
Energy: -26.789936725830955 Kcal/mole
 H     -4.4628691859    -0.3917553216     1.3779741985
 F     -4.8618649222    -0.9161193574     0.7402173794
 H     -4.4560419735    -0.1881789675     3.4720575289
 F     -4.0072150197     0.2969625670     2.8363838256
 H     -5.6607345850    -1.9074130344     3.6528577162
 F     -5.4185541034    -1.2957031691     4.2916445782
 H     -5.6161610651    -2.1891350479     1.5587661501
 F     -5.9450943260    -2.7190525738     2.2309858506
          8
Energy: -26.690590884261866 Kcal/mole
 H     -4.2053138151    -0.7636782585     1.4206060098
 F     -4.6043978467    -1.2785824552     0.7752420784
 H     -4.1982480652    -0.5948889184     3.5242034756
 F     -3.8061945510    -0.0468171053     2.9022707383
 H     -5.6773568131    -2.1548617852     3.5487003417
 F     -5.1559445568    -1.7860350080     4.2067163501
 H     -5.8351766502    -2.1930728710     1.5054278912
 F     -6.4157287328    -2.5563697867     2.1152341149
          8
Energy: -26.745862609018587 Kcal/mole
 H     -4.7417157970    -0.2890826470     1.2587774938
 F     -5.3404975147    -0.5276389393     0.6065196077
 H     -4.3313765274    -0.5191419128     3.2666223653
 F     -3.8438621095    -0.0409668640     2.6546033173
 H     -6.0614970955    -1.7064901016     3.4299391820
 F     -5.4984523945    -1.3824111771     4.0771196170
 H     -6.4101475822    -1.5116019636     1.3833116310
 F     -6.8547148268    -2.0308916668     1.9945294065
          8
Energy: -26.765278495312117 Kcal/mole
 H     -4.8701317214     0.1256041031     1.4774259458
 F     -5.3664613131    -0.0884514651     0.7366654244
 H     -4.6858445631    -0.2975634613     3.5439066535
 F     -4.2104206676     0.2540010293     2.9865578109
 H     -6.3707620172    -1.4659669074     3.4644288805
 F     -5.8183765137    -1.3109778491     4.1797872853
 H     -6.5858570477    -0.9937144053     1.4201100691
 F     -7.1328639456    -1.4848818752     1.9682222566
          8
Energy: -26.78503034253356 Kcal/mole
 H     -5.2657681545     0.7351383723     1.7355557692
 F     -5.8139153592     0.6104237288     1.0110767152
 H     -4.9542892191     0.0253723571     3.6943235870
 F     -4.5463187764     0.7180780582     3.2531796993
 H     -6.5648748484    -1.2728931259     3.4728900030
 F     -5.9754842237    -1.2067704091     4.1722722145
 H     -6.9859280363    -0.4498014718     1.5638786589
 F     -7.4457618722    -1.0549551604     2.0769389444
          8
Energy: -26.7804971549821 Kcal/mole
 H     -4.9239526482     0.2635766587     1.6421725206
 F     -5.5308907205     0.2222022166     0.9560214207
 H     -4.7547270694    -0.3494464268     3.6732197695
 F     -4.1674144297     0.1059753315     3.1360569587
 H     -6.5390399748    -1.4596053367     3.5406129870
 F     -6.0389151748    -1.2483511310     4.2796230308
 H     -6.6685432361    -0.8948494634     1.4855448633
 F     -7.1736546068    -1.5014643767     1.9522030361
          8
Energy: -26.771525410540818 Kcal/mole
 H     -5.2589664786     0.6017054079     1.7186288707
 F     -5.6509257664     0.3556415140     0.9269790259
 H     -5.1213155320    -7.953391E-40     3.7821217260
 F     -4.7599514476     0.7158952334     3.3386585124
 H     -6.5187662724    -1.5023030685     3.4557825779
 F     -6.0333087834    -1.3383806215     4.2162754824
 H     -6.6792808745    -0.8632411752     1.3839836935
 F     -7.1488234331    -1.4857568953     1.8665735441
          8
Energy: -26.8156773683981 Kcal/mole
 H     -5.5815976740     0.8430207443     2.0381435026
 F     -6.1894929314     0.7270642603     1.3614556500
 H     -4.9320940067    -0.1124144640     3.7997874725
 F     -4.5993179673     0.6338869511     3.3836344894
 H     -6.3808728630    -1.6371336745     3.4871190130
 F     -5.8359382183    -1.4847334897     4.2087209924
 H     -6.9156981278    -0.7246458443     1.6702599186
 F     -7.2033500136    -1.5130169910     2.0398763786
          8
Energy: -26.843979590636167 Kcal/mole
 H     -5.4070385374     0.7364505878     1.9294839192
 F     -5.8734405714     0.5430188103     1.1640152457
 H     -5.1305384493     0.0169990611     3.8911760476
 F     -4.7594650482     0.7539634465     3.4910797771
 H     -6.4255193526    -1.5930200440     3.4664161494
 F     -5.9924637760    -1.3705641942     4.2435038294
 H     -6.6882429386    -0.8814896420     1.5172925185
 F     -7.0242621089    -1.6381802049     1.9114999630
          8
Energy: -26.800816943238885 Kcal/mole
 H     -5.3813005578     0.6988785554     1.8824736074
 F     -5.9005613710     0.5333499024     1.1450066774
 H     -5.0715474827     0.0149596510     3.8271394780
 F     -4.6789887861     0.7254637196     3.4005593119
 H     -6.4375984860    -1.5925072433     3.4623483450
 F     -5.9783163855    -1.3712325190     4.2245730157
 H     -6.7499748789    -0.8772661380     1.5168648612
 F     -7.0842944819    -1.6207114466     1.9368749517
          8
Energy: -26.81164156209948 Kcal/mole
 H     -5.2079308414     0.4700511958     1.8032528203
 F     -5.7143873620     0.2706182786     1.0652709071
 H     -4.9904453209    -0.0807654432     3.8250228063
 F     -4.5605322928     0.5819410831     3.3593149062
 H     -6.4537099981    -1.5812608742     3.5291195043
 F     -5.9818277978    -1.3399858952     4.2774527011
 H     -6.6503527822    -1.0499198964     1.5168311259
 F     -7.0665052403    -1.7298369840     1.9700627286
          8
Energy: -26.84253771706244 Kcal/mole
 H     -5.1702925398     0.4053227762     1.7756093499
 F     -5.6751858100     0.2112101939     1.0351418684
 H     -4.9801488702    -0.1080700184     3.7797535233
 F     -4.4955312393     0.5011644311     3.2951215626
 H     -6.5395790802    -1.5168093527     3.5466194453
 F     -6.0749245549    -1.2651246107     4.2960458678
 H     -6.6714219092    -1.0553232661     1.5029949043
 F     -7.1047947652    -1.7052681793     1.9832537693
          8
Energy: -26.845475881915007 Kcal/mole
 H     -5.1577440595     0.4364197642     1.7667968232
 F     -5.6477213822     0.2201733302     1.0224523444
 H     -4.9649580200    -0.1162511814     3.7770656972
 F     -4.4887825940     0.5024154680     3.2960277146
 H     -6.5110729676    -1.5340479555     3.5217469576
 F     -6.0629096309    -1.2721128814     4.2776759494
 H     -6.6232984584    -1.0385739472     1.4951827580
 F     -7.0667952928    -1.6954172152     1.9564380877
          8
Energy: -26.85772253230462 Kcal/mole
 H     -5.1513117036     0.4283768377     1.7648214554
 F     -5.6480626039     0.2205999889     1.0225571331
 H     -4.9778433889    -0.1041581974     3.7795150917
 F     -4.4880990549     0.5017739631     3.2958977799
 H     -6.5149064414    -1.5272867199     3.5217189461
 F     -6.0627062739    -1.2724715494     4.2776774353
 H     -6.6528194135    -1.0386940315     1.4907179219
 F     -7.0960207425    -1.6891923640     1.9611576114
