          8
Energy: -26.717094431632745 Kcal/mole
 H     -3.9523901340     2.3477772886     4.5855173097
 F     -3.4498707916     1.9774472664     5.2572456664
 H     -5.9588923645     2.3140326070     3.9217348699
 F     -5.2510093058     2.7647577078     3.5520898255
 H     -6.4506182017     0.9996025256     5.4814887459
 F     -6.9872138334     1.4080578743     4.8601045201
 H     -4.4755614104     1.0446197599     6.1292330397
 F     -5.1754780840     0.5334902519     6.4288198819
          8
Energy: -26.815738108006087 Kcal/mole
 H     -3.9883241847     1.8926322008     4.5456730202
 F     -3.4354616108     1.6244470940     5.2263408708
 H     -6.0388094145     2.0405640901     4.0753559247
 F     -5.3062615107     2.2956046928     3.5862579186
 H     -6.4804737209     1.1564442840     5.9898354350
 F     -7.0396126690     1.4200938387     5.3125308144
 H     -4.4414472062     1.0854778224     6.4773991301
 F     -5.1702711749     0.8518486441     6.9824951900
          8
Energy: -26.769193944068377 Kcal/mole
 H     -3.9186307553     2.5908987410     4.9338700637
 F     -3.3110002023     2.2475308292     5.5286579151
 H     -5.8591675827     2.2701577682     4.2026900686
 F     -5.2506917266     2.9159384574     3.9711443195
 H     -6.1578552827     0.6972999023     5.5398784343
 F     -6.6658267397     0.9631897828     4.8242272831
 H     -4.2585805222     1.1368536586     6.3844758671
 F     -4.9285504043     0.5941744300     6.6967715792
          8
Energy: -26.695557506128125 Kcal/mole
 H     -4.1248864077     2.6492784591     4.8819615236
 F     -3.5102514818     2.3234497833     5.4794132638
 H     -6.0861635276     2.3008788596     4.1941064854
 F     -5.4796735468     2.9439111298     3.9500400954
 H     -6.2740884405     0.6815606194     5.5448651584
 F     -6.8838126319     1.0529470949     4.9693675509
 H     -4.2618037535     0.9834588666     6.0823258367
 F     -4.8080389074     0.2715911660     6.2714303939
          8
Energy: -26.755888525234525 Kcal/mole
 H     -4.2092348045     2.7864274622     5.2244263724
 F     -3.5520791176     2.2965862462     5.6356331164
 H     -6.1555820272     2.4804614632     4.3642961900
 F     -5.6568797603     3.2433684787     4.4650827703
 H     -6.1404482395     0.4103962757     4.7574019512
 F     -6.7816911362     0.9359116548     4.3655727362
 H     -4.1750551426     0.7339046678     5.6065094016
 F     -4.6780789462    -0.0273827555     5.5154187205
          8
Energy: -26.8254772103368 Kcal/mole
 H     -3.9937964665     2.5607928654     4.9710293328
 F     -3.4789114148     2.1899978530     5.6330666748
 H     -5.7633700967     2.0868289872     3.9085442686
 F     -5.2165169840     2.8202048079     3.8452941405
 H     -5.9968535077     0.3131777123     4.9645880117
 F     -6.5278911962     0.6627231707     4.3037507050
 H     -4.2262427241     0.7674724400     6.0254013483
 F     -4.7942196699     0.0502630445     6.0878663154
          8
Energy: -26.756925527101856 Kcal/mole
 H     -4.3030328696     2.5865098133     5.0748574336
 F     -4.0031019377     2.3219384639     5.9000437381
 H     -5.6569728609     1.9246525843     3.6142107069
 F     -5.1024558069     2.6549795280     3.6094786716
 H     -5.9863176204     0.1828613284     4.7862503936
 F     -6.4339218676     0.5135502898     4.0574265131
 H     -4.5412558963     0.7752549544     6.1595375944
 F     -4.9972125391    -0.0184550466     6.1046106039
          8
Energy: -26.66980220313468 Kcal/mole
 H     -4.6541762888     2.7258205951     5.3577880411
 F     -4.6916527272     2.6133794807     6.2670963015
 H     -4.9790559119     1.7326338221     3.6209141904
 F     -4.6630231320     2.5905459895     3.6916177634
 H     -5.7748275199     0.0957186008     4.7699784523
 F     -5.6140639053     0.2195268423     3.8757102713
 H     -5.5054384542     1.1498638646     6.4922172187
 F     -5.9060054163     0.3285176047     6.4158927133
          8
Energy: -26.8122421645719 Kcal/mole
 H     -4.0342786433     2.2896160032     5.3615679032
 F     -3.9257376369     2.0535824021     6.2409972575
 H     -5.0364971857     1.6706783398     3.6614979276
 F     -4.4700355057     2.3847139024     3.7623115198
 H     -5.8469943957     0.0410641307     4.7022331144
 F     -6.0042668554     0.3184551459     3.8424607038
 H     -4.8227435028     0.6444790115     6.4313497289
 F     -5.3468726115    -0.0904070984     6.2697326415
          8
Energy: -26.74757875253397 Kcal/mole
 H     -3.9923851637     2.4191063472     5.2443241856
 F     -3.9402649289     2.2247882179     6.1389821905
 H     -4.8908961122     1.6188821119     3.5493756202
 F     -4.3753444869     2.3753862285     3.6022627000
 H     -5.9097843440     0.1802288389     4.6644769240
 F     -5.8569456028     0.2892614130     3.7555165480
 H     -5.0236576267     0.9679871798     6.4277290434
 F     -5.6746936163     0.3283501842     6.3388152987
          8
Energy: -26.805872774354583 Kcal/mole
 H     -3.6301715723     2.0632174303     5.1898253094
 F     -3.6716658815     1.9915490248     6.1030782109
 H     -4.6331146302     1.3883172754     3.4597628565
 F     -3.8741534039     1.8946954185     3.5516760400
 H     -6.0380001375     0.4046558300     4.6321157475
 F     -6.0077467586     0.4844574645     3.7190957958
 H     -4.9863860290     1.0044969747     6.4084904144
 F     -5.7192761016     0.4647412629     6.2970233197
          8
Energy: -26.776216967871193 Kcal/mole
 H     -3.7221959641     2.0329250328     5.2330993058
 F     -3.6776924101     1.9056041628     6.1401262236
 H     -4.8487552364     1.3870405682     3.5472715531
 F     -4.1614764610     1.9909624451     3.6090392750
 H     -6.0989283142     0.1908204303     4.8172420521
 F     -6.0345383901     0.2259538813     3.9031804687
 H     -5.0106264878     0.9726761327     6.5016013711
 F     -5.7779405531     0.4708869088     6.4835542115
          8
Energy: -26.82843020339149 Kcal/mole
 H     -3.7309219650     2.0458841334     5.0662873146
 F     -3.6221686483     2.0009894768     5.9757081115
 H     -4.9605509550     1.2967310112     3.5502562761
 F     -4.2757915420     1.9040042244     3.4935747900
 H     -6.0891169740     0.2114855407     4.9726047976
 F     -6.1472197752     0.2230183668     4.0575200701
 H     -4.8582329442     0.9923935312     6.5010393712
 F     -5.5926342048     0.4480056217     6.5730504282
          8
Energy: -26.72232533670649 Kcal/mole
 H     -3.7946887418     2.4844094108     5.0868467997
 F     -3.6613590555     2.4104310321     5.9910809476
 H     -5.0073668873     1.5724729353     3.6255353339
 F     -4.4243856672     2.2756867474     3.5448369353
 H     -5.9424000944     0.3989786883     5.0139488312
 F     -6.0508682377     0.3858400784     4.1034813476
 H     -4.8167170459     1.3158179964     6.5434731695
 F     -5.5296748025     0.7404036692     6.5819255998
          8
Energy: -26.783303964184114 Kcal/mole
 H     -3.7743119766     2.4020414796     4.9454918453
 F     -3.5650017800     2.3722445612     5.8377868555
 H     -5.2861426725     1.7584909583     3.6087217616
 F     -4.5676586969     2.3079768499     3.4579403574
 H     -6.2513361732     0.7074425210     5.1412903906
 F     -6.4601413419     0.7507522432     4.2494307215
 H     -4.7496817219     1.3931941293     6.4809104073
 F     -5.4700867585     0.8488499843     6.6408948913
          8
Energy: -26.812442449106612 Kcal/mole
 H     -3.8784529702     2.3653320814     4.8509784097
 F     -3.5746942896     2.2343053935     5.7062278885
 H     -5.5392810877     1.9827056564     3.6439048847
 F     -4.7694476383     2.4406572334     3.4476249488
 H     -6.4589400283     0.9931336184     5.2149844163
 F     -6.7478462636     1.1183390653     4.3537377715
 H     -4.7977916691     1.3871789179     6.4801865970
 F     -5.5738652546     0.9298070065     6.6516792337
          8
Energy: -26.795325652515032 Kcal/mole
 H     -3.6593380083     1.8645286633     4.7611258517
 F     -3.3141314516     1.6427069949     5.5811969343
 H     -5.3286535219     1.5773926346     3.5237664167
 F     -4.5467891275     2.0268519846     3.3577442450
 H     -6.2834786986     0.5181968649     5.1294271621
 F     -6.5704556614     0.6858729825     4.2747822403
 H     -4.5630331845     0.8436678697     6.3178783552
 F     -5.3617897932     0.4556921488     6.5466833378
          8
Energy: -26.80969337071025 Kcal/mole
 H     -3.7493149887     2.0078726385     4.7995791930
 F     -3.4570809299     1.8692465307     5.6576415784
 H     -5.4841863929     1.7133163558     3.6146163076
 F     -4.6787123917     2.0863133372     3.3844557436
 H     -6.4953995133     0.8108194589     5.2510780005
 F     -6.7637021932     0.9493599016     4.3852204963
 H     -4.7479607701     1.1207867876     6.4622361959
 F     -5.5648498382     0.7580572268     6.6671959871
          8
Energy: -26.79717907629231 Kcal/mole
 H     -3.7433019052     1.6914004390     4.7176755361
 F     -3.4379498975     1.4487062930     5.5475843882
 H     -5.5102560284     1.8187404056     3.6575825594
 F     -4.6635897065     2.0208576125     3.3691492499
 H     -6.5377627801     1.0872156937     5.3620763089
 F     -6.8480220547     1.3373456525     4.5362051408
 H     -4.7845467184     0.9334224532     6.4534978648
 F     -5.6459350693     0.7242624788     6.6883408210
          8
Energy: -26.820145834355742 Kcal/mole
 H     -3.6328195718     1.5430784928     4.8109909867
 F     -3.3396637280     1.2897890120     5.6421306200
 H     -5.4438434406     1.9789240632     3.7939815024
 F     -4.5735441834     1.9908779810     3.5053202705
 H     -6.5033167354     1.5257874160     5.5238280427
 F     -6.8186454056     1.8445020224     4.7239044029
 H     -4.7221020140     1.0425524667     6.5312068136
 F     -5.5883901238     1.0002862286     6.8289440734
          8
Energy: -26.823462107799884 Kcal/mole
 H     -3.5748311223     1.6687149112     5.0904470050
 F     -3.2677589355     1.2982011992     5.8710334904
 H     -5.4029035711     2.1214709735     4.1705953994
 F     -4.5478591750     2.2506976682     3.8654912498
 H     -6.4697672163     1.2507597257     5.7297212117
 F     -6.7761720502     1.7183328206     5.0028233656
 H     -4.6388249323     0.7587797073     6.6803021702
 F     -5.5011902888     0.5712957301     6.9294301497
          8
Energy: -26.829729214650882 Kcal/mole
 H     -3.5177857247     1.7859968024     5.1805385426
 F     -3.2426024547     1.2748126386     5.8903652247
 H     -5.2838514349     2.3802824731     4.2577965850
 F     -4.4207286080     2.5963114791     4.0358969360
 H     -6.4086262768     1.2687773246     5.6514782191
 F     -6.6697796533     1.7735103316     4.9318029412
 H     -4.6267229686     0.6926663737     6.6256023578
 F     -5.4930956477     0.4922028723     6.8494365945
          8
Energy: -26.826019613359477 Kcal/mole
 H     -3.6251062487     1.9604871108     5.3088489829
 F     -3.3554478378     1.5026902983     6.0562413965
 H     -5.2996413234     2.5138622885     4.2530500854
 F     -4.4216474499     2.7140618992     4.0800302193
 H     -6.4866559416     1.5154476592     5.6973251621
 F     -6.7221565681     1.9533633098     4.9268328923
 H     -4.7708733474     0.9962980512     6.7928613574
 F     -5.6525676119     0.8274734181     6.9799508204
          8
Energy: -26.766500472012922 Kcal/mole
 H     -3.6037953923     2.1946632654     5.5131281325
 F     -3.3413405508     1.7310826942     6.2595191227
 H     -5.3382291176     2.4940909354     4.3369091383
 F     -4.4759468660     2.7661593070     4.1841442220
 H     -6.4491129884     1.3511881187     5.7030503583
 F     -6.7554815854     1.8130355329     4.9724860225
 H     -4.7234867133     1.0019193814     6.8619298011
 F     -5.5826898740     0.7086010417     6.9908611018
          8
Energy: -26.83166107860282 Kcal/mole
 H     -3.7321695398     2.6346365851     5.7536890725
 F     -3.4897627747     2.3295946582     6.5837959228
 H     -5.3245948652     2.5429239148     4.4000028675
 F     -4.5085446697     2.9525831049     4.3155610153
 H     -6.3852038412     1.2929089119     5.7821827387
 F     -6.6296940888     1.6333974608     4.9665964055
 H     -4.7826179428     1.3762795755     7.1002153127
 F     -5.5764857877     0.9262102059     7.1902175759
          8
Energy: -26.79318216318623 Kcal/mole
 H     -3.8168993602     2.6194613298     5.7162709595
 F     -3.5157134422     2.2602594472     6.5044016913
 H     -5.5634014540     2.6534899577     4.5052975671
 F     -4.7477216480     3.0522641961     4.3767107834
 H     -6.5654514586     1.4939739166     5.8755445700
 F     -6.8956026664     1.8896979998     5.1170647549
 H     -4.8355591472     1.3679672090     7.0574205633
 F     -5.6464568048     0.9498459393     7.1496625967
          8
Energy: -26.81749048673848 Kcal/mole
 H     -3.6488177920     2.3498398634     5.5743229703
 F     -3.3950534897     2.1232055931     6.4258683809
 H     -5.3596445812     2.3471552896     4.3350355137
 F     -4.5170099586     2.6791692412     4.1914297039
 H     -6.5036785261     1.4649963710     5.8536956932
 F     -6.7500669760     1.6448912858     4.9889300883
 H     -4.8152489901     1.5699530628     7.1505119706
 F     -5.6786530468     1.3071046804     7.3127869306
          8
Energy: -26.826841267892746 Kcal/mole
 H     -3.6047848537     2.1466025745     5.5558868065
 F     -3.3825302741     1.9393440860     6.4210664530
 H     -5.2648977297     2.1766446673     4.2844815050
 F     -4.3966803027     2.4176711119     4.1142059856
 H     -6.5144365327     1.5885956638     5.8567217228
 F     -6.7159491352     1.6932596642     4.9682808874
 H     -4.8374106502     1.6325620507     7.1289222002
 F     -5.7191478120     1.4757918368     7.3260304890
          8
Energy: -26.790274570350192 Kcal/mole
 H     -3.5947356756     2.1608000185     5.5665963656
 F     -3.4003806121     2.1384820466     6.4624853193
 H     -5.1706011181     1.8801146556     4.2197364181
 F     -4.2935610918     2.0963309798     4.0618114565
 H     -6.4723605313     1.4681334788     5.8985625953
 F     -6.6421766285     1.5253169889     4.9992397726
 H     -4.8332054915     1.6951542800     7.2372271009
 F     -5.7052787352     1.4834052587     7.4257466215
          8
Energy: -26.803727177805598 Kcal/mole
 H     -3.5516742944     2.0683696644     5.6299836470
 F     -3.3657406203     2.1382711424     6.5252106865
 H     -5.0803662068     1.7822308893     4.2702796865
 F     -4.1824166740     1.8896748528     4.1185185874
 H     -6.4295053036     1.6005552969     5.9065904671
 F     -6.5713754807     1.5613876630     5.0014784578
 H     -4.8455769582     1.9152004697     7.2409515654
 F     -5.7309723092     1.7628878560     7.4247039537
          8
Energy: -26.831919466023578 Kcal/mole
 H     -3.4962249157     2.1014196771     5.6342586456
 F     -3.3679486990     2.0933720969     6.5422065784
 H     -5.0456327610     1.9810358018     4.2204650977
 F     -4.1482579161     2.1164316385     4.0890293525
 H     -6.4691834302     1.8739900305     5.7694849204
 F     -6.5822366671     1.7714354464     4.8652777965
 H     -4.9226903556     2.0445652129     7.1828139850
 F     -5.8317266615     2.0406288907     7.3033399157
          8
Energy: -26.819505846226548 Kcal/mole
 H     -3.5431598118     1.9412244012     5.6140530096
 F     -3.3959116958     1.9884047783     6.5179230248
 H     -5.1503130012     1.7455781720     4.2696670640
 F     -4.2553785659     1.8467150071     4.0971773628
 H     -6.4878072656     1.6784027334     5.8687894999
 F     -6.6338355557     1.5674420293     4.9703172073
 H     -4.9177852979     1.9857566331     7.1943217424
 F     -5.8208189359     1.9592142627     7.3515310016
          8
Energy: -26.810842983216958 Kcal/mole
 H     -3.6998818144     1.7698380766     5.6083071305
 F     -3.5362239196     1.8790483089     6.5039511550
 H     -5.2626055078     1.4005069784     4.2675989193
 F     -4.3687059875     1.5220132222     4.1030726895
 H     -6.5784942687     1.2930025975     5.8849380835
 F     -6.7398216236     1.2154565911     4.9855776988
 H     -5.0453718341     1.7088174845     7.2072021381
 F     -5.9329498617     1.5569538100     7.3804986164
          8
Energy: -26.770335064721053 Kcal/mole
 H     -3.6182879926     1.6676580941     5.5339559259
 F     -3.4650327601     1.6242503206     6.4370160562
 H     -5.2871487601     1.6828814504     4.2389481583
 F     -4.3917167430     1.7265863244     4.0461259948
 H     -6.6352527767     1.5511681227     5.8338262212
 F     -6.7839186314     1.5530008030     4.9289593222
 H     -4.9523585412     1.5110922071     7.1557221401
 F     -5.8510906463     1.4991176461     7.3374532963
          8
Energy: -26.816818409540673 Kcal/mole
 H     -3.6600831990     1.6687785559     5.5401047976
 F     -3.4925915795     1.6955790129     6.4412803038
 H     -5.2432978665     1.5958528681     4.1559604790
 F     -4.3396605445     1.5888520018     4.0001414234
 H     -6.5930405618     1.5611530155     5.7899467692
 F     -6.7529665834     1.5692335356     4.8870362682
 H     -4.9887122963     1.6470987823     7.1368375065
 F     -5.8884583903     1.5851904639     7.3027089217
          8
Energy: -26.821750248780063 Kcal/mole
 H     -3.7081167650     1.8407683176     5.5221499495
 F     -3.5724470637     2.0286041529     6.4093931130
 H     -5.2798677990     1.4106643653     4.1722052518
 F     -4.3793487490     1.5129503247     4.0325914165
 H     -6.6351198752     1.3929915824     5.7851424457
 F     -6.7929607678     1.2971223380     4.8869306997
 H     -5.0511353468     1.7660241545     7.1113787828
 F     -5.9321016024     1.5760065953     7.2807328013
          8
Energy: -26.812902704256146 Kcal/mole
 H     -3.7735987207     1.9121360197     5.4956415498
 F     -3.6398207426     2.1471199316     6.3718692677
 H     -5.2620069896     1.2701353768     4.2034260708
 F     -4.3805681288     1.4377659512     4.0140731593
 H     -6.6126223172     1.1985662996     5.8217668770
 F     -6.7380046609     1.0383604566     4.9276179209
 H     -5.0852586720     1.7993127196     7.1622088642
 F     -5.9585257669     1.5679120403     7.3195216310
          8
Energy: -26.785108006727427 Kcal/mole
 H     -3.7498112365     1.8261317185     5.5751252069
 F     -3.6646237923     2.0882263213     6.4497328438
 H     -5.2644399803     1.1430472894     4.2305587180
 F     -4.3622001290     1.2586635924     4.1144332633
 H     -6.6331663675     1.2130361585     5.7601063948
 F     -6.7793487090     1.0423613975     4.8710676729
 H     -5.1501815442     1.8204023130     7.0990581381
 F     -6.0221898030     1.5896249714     7.2640806065
          8
Energy: -26.818075871394115 Kcal/mole
 H     -3.6733499207     1.8519440313     5.5997014439
 F     -3.5978812280     1.9784813259     6.5047880638
 H     -5.1745513181     1.3278525328     4.1839605332
 F     -4.2789601409     1.4812965940     4.0604276899
 H     -6.6093347344     1.3167396587     5.7439715120
 F     -6.7028259229     1.1223650563     4.8526988761
 H     -5.1386540695     1.8668072159     7.1324424260
 F     -6.0393602447     1.7595370089     7.2670176417
          8
Energy: -26.828700915945802 Kcal/mole
 H     -3.6594748322     1.5147777935     5.6116423921
 F     -3.5260268493     1.6434072465     6.5097153845
 H     -5.2344752012     1.2950464460     4.2005636771
 F     -4.3247757423     1.3044104753     4.0854628107
 H     -6.6382313294     1.5132877109     5.7497617591
 F     -6.7679127855     1.3107668824     4.8648566602
 H     -5.0636826105     1.8379870580     7.1143079156
 F     -5.9691463803     1.8743331251     7.2546764489
          8
Energy: -26.841640435803413 Kcal/mole
 H     -3.6425428492     1.4354700984     5.5433824969
 F     -3.5069602452     1.6954658947     6.4122372278
 H     -5.2215867867     1.0764681899     4.2281419906
 F     -4.3213264385     1.0161583364     4.0644867828
 H     -6.6064873792     1.5756506012     5.7690749745
 F     -6.7358221288     1.2895274233     4.9075095100
 H     -5.0181429009     1.9520883398     7.0781044931
 F     -5.9184798250     2.0428660516     7.2265694052
          8
Energy: -26.8203823449318 Kcal/mole
 H     -3.6434753998     1.4823258109     5.5661544613
 F     -3.5116222464     1.6983060871     6.4475489622
 H     -5.2111912915     1.1078513928     4.2077454982
 F     -4.3036477514     1.1195881515     4.0769174760
 H     -6.6241190117     1.5205808446     5.7301934513
 F     -6.7480910976     1.2203613772     4.8726456722
 H     -5.0519775820     1.9992449685     7.0199274379
 F     -5.9580238504     2.0781640681     7.1371491730
          8
Energy: -26.82668233379752 Kcal/mole
 H     -3.6733402126     1.4357251956     5.5595160878
 F     -3.5397914232     1.6449188563     6.4422911063
 H     -5.2612873606     1.1122191341     4.2003788319
 F     -4.3537934643     1.0511825554     4.0836810842
 H     -6.6292676224     1.5881019998     5.7452706517
 F     -6.7858353015     1.3642231295     4.8699114036
 H     -5.0625963173     1.9000458928     7.0644135308
 F     -5.9656671016     1.9704989502     7.2072019242
          8
Energy: -26.830552072647777 Kcal/mole
 H     -3.7078442494     1.1171955604     5.6180586675
 F     -3.5721761830     1.4333896328     6.4680613053
 H     -5.2520630545     0.9018066566     4.2205540076
 F     -4.3703126144     0.6559461657     4.1661685274
 H     -6.6483261371     1.6782767596     5.5742510049
 F     -6.7669540548     1.4070907645     4.7063370845
 H     -5.0987142391     1.8699511216     7.0137899192
 F     -6.0004587805     2.0234652923     7.0784365085
          8
Energy: -26.83024797866841 Kcal/mole
 H     -3.6972782344     1.0800833781     5.5578986214
 F     -3.5523503134     1.3513253698     6.4217925267
 H     -5.2321316447     0.9120944043     4.1535890422
 F     -4.3364104272     0.7370213089     4.0645839196
 H     -6.6013262879     1.6074150208     5.6079554551
 F     -6.7375261918     1.3729237529     4.7319689076
 H     -5.0555563076     1.7880363079     6.9846183633
 F     -5.9445281507     1.9843926843     7.0944465733
          8
Energy: -26.834992477768026 Kcal/mole
 H     -3.6496422042     1.3322583853     5.4529887579
 F     -3.5003753189     1.6103945189     6.3139467639
 H     -5.2206721049     1.0381095912     4.0902573766
 F     -4.3239393723     0.8787685117     3.9836279872
 H     -6.6186027934     1.6410665737     5.5805147943
 F     -6.7368322281     1.4453387466     4.6924824647
 H     -5.0227495085     1.8701006374     6.9366286111
 F     -5.9231237904     1.9666207978     7.0811935136
          8
Energy: -26.836482710193707 Kcal/mole
 H     -3.6697390643     1.5089612947     5.3947275921
 F     -3.4874542922     1.7624700091     6.2569309287
 H     -5.3185767800     1.1915455141     4.1061542625
 F     -4.4201874236     1.1171002880     3.9380963184
 H     -6.6595453200     1.7201518327     5.6289984106
 F     -6.8385344085     1.4142876801     4.7832448848
 H     -4.9881311661     2.0661155028     6.8979795750
 F     -5.8856569368     2.1750655314     7.0511669838
          8
Energy: -26.82840911219853 Kcal/mole
 H     -3.6926764056     1.4282007119     5.4182809433
 F     -3.5221688036     1.7450596546     6.2617360803
 H     -5.2463828952     0.7816407456     4.1892166756
 F     -4.3479478342     0.8386540389     4.0147090095
 H     -6.5988995654     1.1055460649     5.8082256008
 F     -6.7469532089     0.7946137917     4.9583489980
 H     -5.0007888754     1.7519072048     7.0044611111
 F     -5.8934787794     1.6907708490     7.2051002933
          8
Energy: -26.823530081998484 Kcal/mole
 H     -3.7135005627     1.6702354723     5.3210843905
 F     -3.5405028520     1.9469257142     6.1780577285
 H     -5.2784649917     0.9261277424     4.1063863522
 F     -4.4104109187     1.1274577921     3.8899669969
 H     -6.5850146521     1.0774715542     5.7578487252
 F     -6.7250208903     0.7309313242     4.9204735869
 H     -5.0179057568     1.8882447612     6.9255484918
 F     -5.8980335806     1.7375572229     7.1342522999
          8
Energy: -26.835812716246238 Kcal/mole
 H     -3.7491074475     1.8175612765     5.3241624319
 F     -3.5750316274     2.0608868106     6.1909838052
 H     -5.2942764997     0.9515892261     4.1700814109
 F     -4.4562032989     1.2319841149     3.9253345693
 H     -6.5360163221     0.9086756473     5.8252928899
 F     -6.6903403747     0.5638383544     4.9897330008
 H     -5.0305785758     1.8239460676     6.9721292383
 F     -5.9002170435     1.6216395186     7.1811507580
          8
Energy: -26.798308464535637 Kcal/mole
 H     -3.6529366190     1.7013227308     5.3508906245
 F     -3.5083683885     2.0440428299     6.1890624210
 H     -5.2471663616     0.9100511463     4.1424971988
 F     -4.3757793283     1.1132696887     3.9418087279
 H     -6.5766677755     1.0772265247     5.7762523127
 F     -6.7067966489     0.6890973013     4.9556969018
 H     -5.0228281070     1.9787478624     6.9068944704
 F     -5.9010185638     1.8288096941     7.1241249178
          8
Energy: -26.832147229798693 Kcal/mole
 H     -3.6510630365     1.7514351669     5.3469658888
 F     -3.5322552473     2.0836735767     6.1933649367
 H     -5.1893592659     0.8807628631     4.1858219417
 F     -4.3106607897     1.0323273158     3.9717981006
 H     -6.5512454340     1.1039534003     5.7456760219
 F     -6.6866546237     0.7402047518     4.9148690214
 H     -5.0222032654     1.9426797164     6.9216199219
 F     -5.9043093697     1.7850172389     7.1163514399
          8
Energy: -26.824165066282518 Kcal/mole
 H     -3.6232605524     1.6818864401     5.3753489257
 F     -3.4740098622     1.9739103388     6.2316988974
 H     -5.1904098172     0.9795560264     4.1554094635
 F     -4.3060110810     1.1149672072     3.9544326302
 H     -6.5533944270     1.1823425370     5.7366371664
 F     -6.6819259295     0.9284223917     4.8649186266
 H     -4.9616821758     1.8095342425     6.9817319502
 F     -5.8446191396     1.6636067110     7.1817731299
          8
Energy: -26.835723313470254 Kcal/mole
 H     -3.6322018691     1.7042001107     5.3618993259
 F     -3.5062200522     1.9950432753     6.2223804910
 H     -5.2014125739     1.0081126800     4.1494872674
 F     -4.3185141884     1.1393635244     3.9393619319
 H     -6.5475104847     1.1940566780     5.7265640739
 F     -6.6863948923     0.8973638752     4.8700750184
 H     -5.0111656488     1.9281239130     6.9624881494
 F     -5.9053598737     1.8154176503     7.1316123242
          8
Energy: -26.840840926732596 Kcal/mole
 H     -3.6093737845     1.5968355085     5.3910437306
 F     -3.4868130057     1.9128685562     6.2430947668
 H     -5.1936519803     0.9389904565     4.1345324098
 F     -4.2962822775     1.0217032158     3.9648998187
 H     -6.5829713527     1.3091904469     5.6792334675
 F     -6.7088976015     0.9454664651     4.8469255648
 H     -5.0236842664     2.0291138486     6.9217313907
 F     -5.9297372608     2.0059530567     7.0610890205
          8
Energy: -26.85136869190015 Kcal/mole
 H     -3.6372920742     1.6361414347     5.3637004231
 F     -3.4952159701     1.9156280738     6.2254373895
 H     -5.2046488069     1.0137290156     4.1146545512
 F     -4.3101380216     1.1034583928     3.9338560617
 H     -6.5889699205     1.2978740789     5.6925197740
 F     -6.7126524682     0.9845856166     4.8396176889
 H     -5.0167079393     1.9479406611     6.9491707980
 F     -5.9165167983     1.8930946342     7.1171735678
          8
Energy: -26.826772353894484 Kcal/mole
 H     -3.6405645634     1.6571359633     5.3487809628
 F     -3.4985604861     1.9359920071     6.2107340641
 H     -5.2363059713     1.0296240960     4.1600805649
 F     -4.3537872348     1.1199773636     3.9279470541
 H     -6.5428972143     1.2880206115     5.7800314329
 F     -6.7123737235     0.9965123800     4.9272772691
 H     -4.9786415063     1.9247990241     6.9547634803
 F     -5.8629352832     1.8449055695     7.1839589250
          8
Energy: -26.849250575536047 Kcal/mole
 H     -3.6548842447     1.7286958093     5.3317373340
 F     -3.4836347974     1.9544422811     6.2038618419
 H     -5.2553588072     1.1502772123     4.1138861172
 F     -4.3715829011     1.2600410600     3.8952973581
 H     -6.5503051350     1.2611487071     5.7750114769
 F     -6.7244637937     1.0328140176     4.9041377598
 H     -4.9658245358     1.8504962083     6.9913129522
 F     -5.8518304750     1.7499938298     7.2052796495
          8
Energy: -26.841160359343576 Kcal/mole
 H     -3.6492262997     1.7656281088     5.3417320617
 F     -3.4982568710     2.0381323560     6.2041928822
 H     -5.2541726862     1.1289237649     4.1454940705
 F     -4.3706025186     1.2314329993     3.9225936087
 H     -6.5503149710     1.2969657199     5.7900632133
 F     -6.7307716709     1.0621910689     4.9221892347
 H     -4.9620641516     1.8972646654     6.9867626497
 F     -5.8317006755     1.7373532906     7.2297640254
          8
Energy: -26.84041164277403 Kcal/mole
 H     -3.6493377028     1.7745781244     5.3575471349
 F     -3.4985214276     2.0829167554     6.2078827979
 H     -5.2376150103     1.0601463330     4.1575999292
 F     -4.3507885127     1.1783934791     3.9564895723
 H     -6.5463417393     1.2568748042     5.8023803592
 F     -6.7107234524     1.0046385470     4.9362137915
 H     -4.9496533825     1.9255220125     7.0080438832
 F     -5.8217426549     1.7649760183     7.2416552803
          8
Energy: -26.857583575191256 Kcal/mole
 H     -3.6271696479     1.7683958132     5.3660890476
 F     -3.4723015461     2.0483226760     6.2254759352
 H     -5.2266045339     1.0917765613     4.1685976512
 F     -4.3423720776     1.2068174402     3.9546173731
 H     -6.5479205940     1.2730856771     5.7977851320
 F     -6.7106396978     1.0037785977     4.9364575577
 H     -4.9492570877     1.9207633987     7.0091379763
 F     -5.8310413053     1.7877321586     7.2227925640
          8
Energy: -26.85406637685614 Kcal/mole
 H     -3.6261430859     1.7698600040     5.3716999745
 F     -3.4670887181     2.0642556024     6.2254692289
 H     -5.2291138343     1.0942371742     4.1593086241
 F     -4.3422389650     1.2066869104     3.9551101345
 H     -6.5546165046     1.2868253463     5.7975189956
 F     -6.7162201477     1.0238827170     4.9340177297
 H     -4.9449942155     1.9502869149     7.0051942753
 F     -5.8271466187     1.8129184726     7.2145409939
          8
Energy: -26.85536246476127 Kcal/mole
 H     -3.6506648795     1.7905214551     5.3825822831
 F     -3.4828049752     2.0637675597     6.2416798438
 H     -5.2257380427     1.1298716246     4.1618132536
 F     -4.3412775665     1.2603579819     3.9578721429
 H     -6.5588233754     1.2890861281     5.7976039712
 F     -6.7159969829     1.0237627878     4.9340132219
 H     -4.9532437662     1.9327473246     7.0187848612
 F     -5.8353669622     1.7968763323     7.2292290116
          8
Energy: -26.85665786325177 Kcal/mole
 H     -3.6325111811     1.8209523217     5.3810994721
 F     -3.4652403863     2.0999921824     6.2384478478
 H     -5.2289351662     1.1674788298     4.1727392136
 F     -4.3417513685     1.2747871824     3.9671210564
 H     -6.5481094758     1.3193500520     5.7901886712
 F     -6.7110329818     1.0782668700     4.9205773611
 H     -4.9423630794     1.9629850330     7.0043251174
 F     -5.8219548656     1.8175759881     7.2189492059
          8
Energy: -26.855688504945306 Kcal/mole
 H     -3.6247384189     1.8010883624     5.3863443985
 F     -3.4656527134     2.1010459195     6.2381696166
 H     -5.2192386739     1.1312713221     4.1643645068
 F     -4.3280440344     1.2298186704     3.9721418890
 H     -6.5412462207     1.3273310086     5.7808356227
 F     -6.7079702151     1.0838381524     4.9126171371
 H     -4.9400397299     1.9603181066     7.0122237654
 F     -5.8220781140     1.8177174624     7.2185302009
          8
Energy: -26.857838868183507 Kcal/mole
 H     -3.6355194171     1.8188501572     5.3823798529
 F     -3.4650808063     2.1001036974     6.2383799266
 H     -5.2234737059     1.1470250204     4.1648104510
 F     -4.3355309191     1.2607339860     3.9660219237
 H     -6.5346279595     1.3070110216     5.7960903647
 F     -6.7052596253     1.0641992643     4.9284405015
 H     -4.9423315083     1.9685929710     7.0083712315
 F     -5.8219565404     1.8172784999     7.2187345689
          8
Energy: -26.858275013701416 Kcal/mole
 H     -3.6272297928     1.8173546620     5.3812650805
 F     -3.4655205518     2.1001830299     6.2384390627
 H     -5.2211995527     1.1496935707     4.1761234618
 F     -4.3356515577     1.2605924256     3.9654217946
 H     -6.5419083204     1.3102971440     5.7965636427
 F     -6.7048734190     1.0640249431     4.9284153952
 H     -4.9424643825     1.9583665702     7.0120507192
 F     -5.8237159955     1.8146909812     7.2209572047
          8
Energy: -26.85589828542882 Kcal/mole
 H     -3.6268486779     1.8139135413     5.3823366630
 F     -3.4655407690     2.1003655734     6.2383822177
 H     -5.2214614758     1.1462764627     4.1731730032
 F     -4.3356376633     1.2607736952     3.9655783096
 H     -6.5385449561     1.3021184673     5.7885906553
 F     -6.7023077967     1.0569718352     4.9202739730
 H     -4.9417098493     1.9598038701     7.0123510163
 F     -5.8198182328     1.8033561403     7.2252800529
          8
Energy: -26.858244585216056 Kcal/mole
 H     -3.6299699672     1.8288473643     5.3780819253
 F     -3.4653751918     2.0995733686     6.2386079217
 H     -5.2072213792     1.1498066857     4.1675338099
 F     -4.3225150300     1.2804947560     3.9647918457
 H     -6.5408877315     1.3077186196     5.7874282765
 F     -6.7021835179     1.0566747601     4.9203356345
 H     -4.9407778734     1.9574880145     7.0156343482
 F     -5.8209179747     1.8054412957     7.2232980124
          8
Energy: -26.861226445032088 Kcal/mole
 H     -3.6279105611     1.8253387927     5.3788022777
 F     -3.4654844386     2.0997594902     6.2385697087
 H     -5.2081719168     1.1566408077     4.1676675514
 F     -4.3224646062     1.2801322216     3.9647847510
 H     -6.5244508345     1.3014000932     5.7968746699
 F     -6.6917528285     1.0521947930     4.9303899550
 H     -4.9407047644     1.9551486895     7.0142501509
 F     -5.8209218530     1.8055653915     7.2233714408
