          8
Energy: -26.862133751797785 Kcal/mole
 H     -3.9005524628     2.7020950620     5.0431725247
 F     -3.6514670664     3.0454502629     5.8561624824
 H     -5.5162122361     1.6966982662     4.1300648144
 F     -4.7155844350     1.9709798403     3.7770014457
 H     -6.5719515039     1.7236141751     5.9428228602
 F     -6.8163653681     1.3724838625     5.1317381750
 H     -4.9559106981     2.7381722263     6.8539640915
 F     -5.7598131200     2.4722376593     7.2059707707
