          8
Energy: -26.85772253230462 Kcal/mole
 H     -5.1513117036     0.4283768377     1.7648214554
 F     -5.6480626039     0.2205999889     1.0225571331
 H     -4.9778433889    -0.1041581974     3.7795150917
 F     -4.4880990549     0.5017739631     3.2958977799
 H     -6.5149064414    -1.5272867199     3.5217189461
 F     -6.0627062739    -1.2724715494     4.2776774353
 H     -6.6528194135    -1.0386940315     1.4907179219
 F     -7.0960207425    -1.6891923640     1.9611576114
