          8
Energy: -26.863031630624278 Kcal/mole
 H     -3.9400738845     2.9345307176     5.0331005390
 F     -3.7455331063     3.3276981547     5.8383720783
 H     -5.4133501225     1.7350261207     4.1361022458
 F     -4.6440540257     2.0824549891     3.7778206571
 H     -6.4940463445     1.7159904346     5.9468532440
 F     -6.6807716147     1.3098064804     5.1462052134
 H     -5.0263620941     2.9271064971     6.8388882865
 F     -5.8035331369     2.5931711272     7.1929805612
