          8
Energy: 0.9404364365689304 Kcal/mole
 H     -3.7855828823     0.3247715013     1.4484020109
 F     -3.7515421718    -0.5915964542     1.4484020109
 H     -2.2015913378    -3.2219480174     5.1387885886
 F     -1.8912526111    -3.2219480174     4.2758987493
 H     -0.3846380768     2.3630485947    -3.9224393498
 F      0.5323619232     2.3630485947    -3.9224393498
 H      2.8782975276    -0.4239833442     2.2100611763
 F      2.0614389636    -0.8406739805     2.2100611763
