          8
Energy: -26.463523450018812 Kcal/mole
 H     -5.8802857050     0.6658608663     1.7816728589
 F     -6.6401933312     0.3827945268     1.3535340415
 H     -4.2907408396    -0.2995502595     2.9142025523
 F     -4.4096476999     0.5580115368     2.6119809051
 H     -5.3405704015    -2.1043108254     2.9866938989
 F     -4.4792770416    -1.9764817538     3.2743090526
 H     -6.8944922859    -1.1358929181     1.8486385348
 F     -6.8532166708    -1.9551534960     2.2585134292
          8
Energy: -26.567330450307708 Kcal/mole
 H     -6.7120755449     0.6259273907     2.3024821036
 F     -7.4875309497     0.3490195385     2.7060659940
 H     -4.6174396354     0.1402500493     2.2585975236
 F     -5.1360838716     0.7366845556     1.7936641564
 H     -4.9366326964    -1.5010516213     3.4938643480
 F     -4.1434847797    -1.2194820010     3.1298259830
 H     -7.0215166705    -1.0403868640     3.4677730550
 F     -6.5964939340    -1.7543807959     3.8556613618
          8
Energy: -26.591056026480913 Kcal/mole
 H     -6.2948874628     1.2244633751     3.0290164485
 F     -6.9351278351     1.2687819510     3.6840104405
 H     -5.1004864364    -0.1032161440     2.0738182746
 F     -5.0977379468     0.8068889736     1.9616125671
 H     -6.0122062107    -1.6353913407     3.2180809132
 F     -5.4423158854    -1.6388997597     2.4996787221
 H     -7.0542648856    -0.2898910054     4.3163588603
 F     -7.0131462906    -1.1996237235     4.4239908390
          8
Energy: -26.71535478367298 Kcal/mole
 H     -6.9270546866     1.0503404787     2.3727399781
 F     -7.3994276505     0.9686987284     3.1544607771
 H     -5.4607704667    -0.0739375271     1.3104711034
 F     -5.8749709383     0.7242903847     1.1311413231
 H     -5.5005693107    -1.5975735249     2.7253885890
 F     -5.0025813236    -1.5249445104     1.9588235291
 H     -6.9530747765    -0.5378021595     3.7640204592
 F     -6.5696288080    -1.3506787519     3.9459265745
          8
Energy: -26.626732702981883 Kcal/mole
 H     -6.6903360765     1.2327869421     2.2127165163
 F     -6.8546695959     1.1697478906     3.1126662774
 H     -6.3045975265    -0.0247936525     0.6248463957
 F     -6.5436887517     0.8598627459     0.5915681335
 H     -6.2033505836    -1.6383680147     1.9627345696
 F     -5.9802450555    -1.6105851520     1.0737233010
 H     -6.8199768814    -0.4526569456     3.5391386747
 F     -6.7574582897    -1.3666388536     3.4989205497
          8
Energy: -26.439288817919362 Kcal/mole
 H     -6.5214936923     1.3062138712     2.5683172269
 F     -6.7443470729     1.1104952308     3.4360266164
 H     -6.3072818173     0.4808823066     0.6817752551
 F     -6.2495037182     1.3510581591     0.9652266210
 H     -6.9686734819    -1.4366453629     1.5116616422
 F     -6.6441546279    -1.2404592845     0.6767439600
 H     -7.1425545578    -0.5804870951     3.4135813786
 F     -7.2541819188    -1.4536028231     3.1564875087
          8
Energy: -26.58348499485561 Kcal/mole
 H     -6.4703296210     1.7275757194     2.1511054403
 F     -7.0349546627     1.5878789652     2.8600288347
 H     -5.5504106138     0.6634805917     0.5271410852
 F     -5.5638197704     1.5598254802     0.7202085227
 H     -6.2718690672    -1.1802557362     1.4299887690
 F     -5.7203590166    -1.0643674801     0.7065970520
 H     -7.2882032344    -0.1207082303     2.8821681593
 F     -7.2710520606    -1.0242250010     2.7264367164
          8
Energy: -26.72806705717383 Kcal/mole
 H     -6.1690605525     1.7734491270     2.0614493590
 F     -6.7690164153     1.7019444001     2.7512529809
 H     -5.4686949991     0.7036491657     0.3465353248
 F     -5.1810941958     1.4806361212     0.7395570150
 H     -6.7107460268    -0.9282332922     0.8869634111
 F     -6.2199297338    -0.8065658787     0.1219892892
 H     -7.3093804713     0.1178903269     2.6161792373
 F     -7.4481548011    -0.7482859287     2.3490287560
          8
Energy: -26.67199786734284 Kcal/mole
 H     -5.5917117929     0.7983271136     2.4222864225
 F     -5.6500784685     0.6140783221     3.3186874009
 H     -5.8780356166    -0.2382253728     0.6006844180
 F     -5.6421567761     0.6376939841     0.7349060734
 H     -6.3948269322    -1.9872126164     1.5598067497
 F     -6.2549308819    -1.8703337562     0.6611091214
 H     -6.1558274855    -0.9593011154     3.3898794760
 F     -6.4330954933    -1.8096509955     3.1876011205
          8
Energy: -26.731909488502538 Kcal/mole
 H     -6.1490183747     1.2210683116     2.3356780560
 F     -5.6990003389     1.0769571379     3.1215563781
 H     -7.3094975667     0.1835768633     1.0456330142
 F     -7.1030366657     1.0762873363     1.0091514056
 H     -7.2381351521    -1.4862119129     2.3432819006
 F     -7.4765300418    -1.4281298448     1.4597190280
 H     -6.2817176470    -0.3629611488     3.7783505082
 F     -6.7099459156    -1.1682713537     3.8731398740
          8
Energy: -26.689604420860064 Kcal/mole
 H     -5.2340990523     1.0749483784     2.6065058020
 F     -5.8495326636     1.5596512566     3.0831540895
 H     -5.0104431940    -0.8836114934     1.6813096871
 F     -4.4348416765    -0.1713774874     1.7292118129
 H     -6.7876722097    -1.5024898580     2.3841867946
 F     -6.2650358758    -1.9468397575     1.7756693919
 H     -6.9823721602     0.3760922837     3.4175917438
 F     -7.4399178550    -0.4145210823     3.4980370216
          8
Energy: -26.62814464945461 Kcal/mole
 H     -6.0827511904     0.9717682483     1.8542468460
 F     -6.6365607144     1.3588395869     2.4742144178
 H     -5.0943866093    -0.9191264255     1.4535185829
 F     -5.1528068188    -0.1307404353     0.9888427716
 H     -5.8929864222    -1.7190559248     3.2494994798
 F     -5.2528151868    -2.0387770032     2.6760465860
 H     -6.9821083819     0.0780609468     3.5420104588
 F     -7.0270713994    -0.6995530958     4.0259357917
          8
Energy: -26.65518446906836 Kcal/mole
 H     -6.0815712550     0.6735969762     1.1485035499
 F     -6.9385061029     0.8509287793     1.4225566435
 H     -4.5502632704    -0.6818197198     1.6750806823
 F     -4.5646253454    -0.0110301605     1.0500014089
 H     -5.5496651097    -1.3963409096     3.2616503134
 F     -4.8237843541    -1.7860724525     2.8590395173
 H     -7.0213900700     0.1045461027     2.9509563282
 F     -6.8664282198    -0.4267877941     3.6820925092
          8
Energy: -26.757696517325797 Kcal/mole
 H     -5.0446327872     1.1265527248     2.7114010551
 F     -5.7482322313     1.4662813614     3.1914232167
 H     -4.1807748417    -0.7297027568     2.1539144315
 F     -3.9404763680     0.1269324128     1.9318292458
 H     -5.6331193099    -1.6609585380     3.4474904423
 F     -5.0408265596    -2.0157994283     2.8440285624
 H     -6.3393412362     0.1792038280     4.0714885001
 F     -6.5270401792    -0.6516603108     4.4110807404
          8
Energy: -26.69676353018957 Kcal/mole
 H     -4.3695478144     1.2630915077     3.4242921655
 F     -4.7686804558     1.6701631027     4.1425364492
 H     -3.5825905722    -0.6315072184     2.8758833826
 F     -3.5636535100     0.1772324182     2.4440609794
 H     -4.2399337330    -1.4354540670     4.7280089616
 F     -3.9014641159    -1.8599685404     3.9890131698
 H     -4.8908786443     0.4681537161     5.2857518757
 F     -4.9382848062    -0.3229609995     5.7470317935
          8
Energy: -26.590694048893454 Kcal/mole
 H     -3.4784508710     1.2021763075     4.2401162666
 F     -3.8091144477     1.3283153564     5.0860710759
 H     -3.2381067700    -0.2841789827     2.7614451991
 F     -3.0405791993     0.6112645616     2.7541844993
 H     -4.1497985285    -1.6897378896     4.0918041462
 F     -3.7655611232    -1.8448395672     3.2737613075
 H     -4.6342433258    -0.0801553201     5.4336832654
 F     -4.9422561446    -0.9438715393     5.4303074641
          8
Energy: -26.70552062719119 Kcal/mole
 H     -2.3274960404     0.8973774068     4.7252701813
 F     -2.3147100685     0.7715716885     5.6335093789
 H     -3.1326935175    -0.0470725128     3.0142200929
 F     -2.6578058448     0.7362254865     3.0568222357
 H     -3.7620900006    -1.5976458662     4.2192156382
 F     -3.8959372983    -1.4793196251     3.3197864851
 H     -3.0016339855    -0.7217096319     5.9477049206
 F     -3.4227749749    -1.5324308776     5.8685826810
          8
Energy: -26.62507607833561 Kcal/mole
 H     -2.1199298066     0.8619445044     4.3442304372
 F     -1.7347461276     0.7755448117     5.1719125178
 H     -3.7676976713     0.1763270299     3.3210507794
 F     -3.0734683271     0.6582244024     2.9650879443
 H     -4.4142732526    -0.8150060543     5.1026840395
 F     -4.7730881961    -0.6863196983     4.2686692566
 H     -2.6966137362    -0.2513428186     6.1341467948
 F     -3.3827793505    -0.7852193711     6.4257656838
          8
Energy: -26.662835443595583 Kcal/mole
 H     -2.8148853665     1.7147591127     4.3434626893
 F     -2.1880001016     1.6888902049     5.0122187467
 H     -4.1150355546     0.3743543742     3.3008338833
 F     -4.0056403380     1.2831503697     3.2459565182
 H     -3.4012111697    -1.2429462004     4.4677349506
 F     -3.9420709840    -1.2811822637     3.7282096537
 H     -2.1199215897     0.0940944699     5.4931636175
 F     -2.2950484801    -0.7882529188     5.6711598473
          8
Energy: -26.51444257114116 Kcal/mole
 H     -3.4962181642     1.9565686119     4.6441243858
 F     -3.2980052013     1.8943970030     5.5372846807
 H     -3.5108738607     0.7082575874     2.8630183355
 F     -3.7266692573     1.5850925289     3.0226486344
 H     -2.5627221196    -0.8280623445     3.9083517167
 F     -2.9772480580    -0.8792051022     3.0919929324
 H     -2.3975933470     0.5144447429     5.6117359884
 F     -2.0779161693    -0.3319666650     5.4624603019
          8
Energy: -26.668914538627035 Kcal/mole
 H     -2.1916859938     1.8638468602     3.7274157946
 F     -1.8073637018     1.9598114289     4.5544443174
 H     -3.1995086636     0.5478860358     2.5290244818
 F     -2.9019425753     1.3945416066     2.3405629011
 H     -3.2079431038    -0.8594364937     4.1097239519
 F     -3.6068437884    -0.8939223784     3.2847524569
 H     -2.1283183016     0.4749667409     5.2540592401
 F     -2.4099151525    -0.3611450736     5.5040777338
          8
Energy: -26.723771871325624 Kcal/mole
 H     -2.0420553314     1.4851473767     3.6259985966
 F     -1.9134685030     1.8302015348     4.4658152763
 H     -3.0292784443    -0.1546059502     2.6685058992
 F     -2.5968494875     0.5739215184     2.3175900618
 H     -3.7286983793    -0.8797361211     4.5417110747
 F     -3.7586229351    -1.2942636285     3.7243002437
 H     -2.8592358165     0.8115497986     5.4740515187
 F     -3.4094238944     0.1568484529     5.8050322235
          8
Energy: -26.741564373547334 Kcal/mole
 H     -2.1103152885     1.1074157064     3.5160633020
 F     -2.1952256924     1.6107655034     4.2778494958
 H     -2.7655662500    -0.6811361013     2.7670145132
 F     -2.2427784189    -0.0542287010     2.3491999668
 H     -3.7043842625    -1.0493439092     4.6232543717
 F     -3.7493991698    -1.5092680772     3.8312111799
 H     -2.9344591973     0.6774580110     5.4454606015
 F     -3.3862591324    -0.0054598625     5.8582426223
          8
Energy: -26.686280440647693 Kcal/mole
 H     -2.2325054474     0.9335767928     4.1913901571
 F     -2.3497334419     1.2839045882     5.0306857147
 H     -3.0440254061    -0.5317346948     2.9126535277
 F     -2.3757945302     0.0721460280     2.7403614241
 H     -4.5554005259    -0.9944662158     4.2599884063
 F     -4.3404763172    -1.4068253079     3.4696362293
 H     -3.7700214731     0.5277760850     5.6272922083
 F     -4.5049898497    -0.0198819669     5.6552411550
          8
Energy: -26.57315509354129 Kcal/mole
 H     -2.4867701104     1.0549175353     4.5353330413
 F     -2.6268264110     1.1327472618     5.4382260395
 H     -3.3466673703     0.2914542799     2.8899999379
 F     -2.5744615004     0.7858786559     2.9014729883
 H     -4.9049360258    -0.5497329656     4.1118999362
 F     -4.7186444076    -0.6377829328     3.2183499173
 H     -4.0628518280     0.3264643482     5.8798045029
 F     -4.8278306076    -0.1738735383     5.8066029582
          8
Energy: -26.781994171653565 Kcal/mole
 H     -3.4351993780     2.3107744635     4.5000643093
 F     -3.6445023838     2.4584419730     5.3805616451
 H     -4.2232699507     1.3640676832     2.8354088420
 F     -3.4422450892     1.8393181146     2.9063044916
 H     -5.8713744005     0.7070396905     3.9107984856
 F     -5.6278838582     0.5475052847     3.0412295527
 H     -5.0842182724     1.6768646149     5.6071433482
 F     -5.8714587599     1.2190574989     5.4996535376
          8
Energy: -26.735369538087895 Kcal/mole
 H     -4.4301039550     3.2551130257     4.0535628333
 F     -4.4187400500     3.2795515439     4.9701666847
 H     -4.9317390233     1.9023563143     2.5886564592
 F     -4.6984086888     2.7825187112     2.4802124184
 H     -5.5758199135     0.4983977218     4.0182825286
 F     -5.3902849900     0.3926666827     3.1264940226
 H     -5.2289613919     1.8980013462     5.4914352768
 F     -5.6599203894     1.0910723834     5.5549096146
          8
Energy: -26.684693747569042 Kcal/mole
 H     -4.7055424673     3.1893987685     3.8676138705
 F     -4.5286230410     3.2325432532     4.7663502446
 H     -5.5049411354     1.9650656235     2.4654932379
 F     -5.1442936428     2.7980991748     2.3355798495
 H     -5.9542382079     0.5825281434     3.9758630995
 F     -6.0809571652     0.5159753146     3.0701026307
 H     -5.1402291679     1.8494055222     5.4460013123
 F     -5.5359698108     1.0332856697     5.5810077190
          8
Energy: -26.672287845951075 Kcal/mole
 H     -5.0480130274     3.5925497000     4.2061192533
 F     -5.1126304924     3.7827384426     5.1008492826
 H     -5.8860883898     2.1756025423     2.8333556247
 F     -5.2352814754     2.8103829186     2.7133838194
 H     -7.0003769252     1.3013373190     4.2291405223
 F     -7.0573084570     1.1546204130     3.3257458410
 H     -6.0635765955     2.5644227970     5.6753917582
 F     -6.6485897956     1.8654621725     5.7759034545
          8
Energy: -26.667221624153512 Kcal/mole
 H     -5.0211614133     3.8033558940     4.4016620372
 F     -5.2569785060     3.8708609967     5.2852469850
 H     -5.4329847721     2.5674124077     2.7529672523
 F     -4.7994942822     3.2273191676     2.8170130756
 H     -6.8207579223     1.4819015051     3.9514366722
 F     -6.5793626489     1.4353329751     3.0680065991
 H     -6.3935307812     2.6792992721     5.6352209898
 F     -6.9791687800     1.9776807561     5.5600638723
          8
Energy: -26.698815349888463 Kcal/mole
 H     -4.8113180265     3.5886486963     4.5352562139
 F     -5.0247702859     3.7240572890     5.4167275101
 H     -5.3566625240     2.3223237922     2.9343258938
 F     -4.7437494350     3.0042536172     2.9484063458
 H     -6.5350069974     1.2161887660     4.2977025473
 F     -6.4268139186     1.1090410368     3.3934334381
 H     -5.9960018883     2.4591843612     5.8495707776
 F     -6.5833251488     1.7551575262     5.8665001394
          8
Energy: -26.737712033086666 Kcal/mole
 H     -5.0097710445     3.8417373401     4.5857739628
 F     -4.9747343688     3.8842841382     5.5011160853
 H     -5.9332530778     2.7563299896     3.0359942320
 F     -5.3997787048     3.5007217376     2.9893571338
 H     -6.8450643504     1.4946015629     4.4694342082
 F     -6.8418605586     1.4540473504     3.5533370018
 H     -5.9395571457     2.6136757375     6.0735306803
 F     -6.4720030906     1.8677331030     6.1045129634
          8
Energy: -26.741457133684833 Kcal/mole
 H     -4.7987880952     3.5594679129     4.6157279106
 F     -4.5846100166     3.5098374122     5.5059826854
 H     -6.0607059795     2.7327771566     3.2151789947
 F     -5.4529473957     3.4080428707     3.0905406409
 H     -7.0449573037     1.6276485595     4.7628985149
 F     -7.1329311428     1.5842588016     3.8511601026
 H     -5.7780818938     2.5663077063     6.1359936711
 F     -6.4885796402     2.0136627476     6.3111093527
          8
Energy: -26.725959982541724 Kcal/mole
 H     -4.2890416727     3.0684803321     4.5721538675
 F     -4.1886683833     2.9502520324     5.4759438165
 H     -5.6820632386     2.6318798227     3.1042402358
 F     -4.8759256052     3.0630277874     3.0325286718
 H     -6.9060691524     1.6464119387     4.4772801810
 F     -7.0618274567     1.8764371086     3.6033712774
 H     -5.3876632026     1.8995888877     5.9257196225
 F     -6.1503021712     1.3926892320     5.9739227607
          8
Energy: -26.630412990038252 Kcal/mole
 H     -4.2835211564     3.2374121418     4.5517574828
 F     -4.1779394642     3.2792979854     5.4616954380
 H     -5.3708023344     2.2410496714     3.0576013211
 F     -4.6323226168     2.7794564492     2.9824025956
 H     -6.4105218155     1.1139028084     4.4644282719
 F     -6.5845335242     1.1921910581     3.5675002507
 H     -5.1370377149     2.0482968797     5.9971327900
 F     -5.7408638865     1.3584589714     6.0172974810
          8
Energy: -26.810433176597797 Kcal/mole
 H     -4.0969517091     2.9660193523     4.7792981119
 F     -3.9644860243     2.7366914477     5.6572221146
 H     -5.4990149481     2.5553023612     3.2461977886
 F     -4.7474716804     3.0800720140     3.2199579656
 H     -6.6956117230     1.4060437470     4.5681954972
 F     -6.7870609128     1.5570482684     3.6683490213
 H     -5.2976304808     1.8341771638     6.1044576849
 F     -6.0979764868     1.3876784262     6.1356690280
          8
Energy: -26.750291147224544 Kcal/mole
 H     -4.0866745854     2.9524546466     5.0324280306
 F     -3.8591637750     2.4936929239     5.7931287030
 H     -5.6529871711     3.0102405597     3.6104538452
 F     -4.8528999361     3.4568807076     3.6459784108
 H     -6.8411847850     1.7521871096     4.8285987692
 F     -6.9925614150     2.0945326493     3.9914765276
 H     -5.2575643789     1.6921138255     6.2575405734
 F     -6.1117666492     1.3626261355     6.3091675391
          8
Energy: -26.74721488054368 Kcal/mole
 H     -3.9706845570     2.7956477552     4.7438144800
 F     -3.6867530076     2.3847507714     5.5128629467
 H     -5.7053368543     2.9572448603     3.4926622920
 F     -4.8807816754     3.3564665133     3.4524151946
 H     -6.6036629213     1.4804572380     4.6098952261
 F     -6.9844174996     1.9849640838     3.9455250028
 H     -4.9022322839     1.2839112682     5.8195816111
 F     -5.6482614441     0.7541053682     5.7592889861
          8
Energy: -26.74632231115993 Kcal/mole
 H     -3.8856076479     2.2267248196     4.4570891753
 F     -3.5856813290     1.5543050883     5.0037013853
 H     -5.6378422341     2.7990930087     3.4956311983
 F     -4.8117101803     3.1949534638     3.4545297402
 H     -6.6036023059     1.2052526216     4.3838789486
 F     -6.9444525508     1.8526671333     3.8311000050
 H     -4.8787485819     0.5737090164     5.3392862944
 F     -5.7263612447     0.2286623404     5.3974633108
          8
Energy: -26.783273621669395 Kcal/mole
 H     -4.0565907276     2.4292635065     5.0239854011
 F     -3.5662404457     1.7269591287     5.3514211382
 H     -5.9048912287     2.8861490621     4.0267600053
 F     -5.2105767375     3.4213705620     4.2957476133
 H     -6.5006544528     0.9312485564     4.1589669897
 F     -6.9387717687     1.6201648665     3.7414307216
 H     -4.6606687495     0.4666787521     5.1430127538
 F     -5.3986428391    -0.0438463082     4.9542075478
          8
Energy: -26.807590668746684 Kcal/mole
 H     -4.1007914817     2.5649367764     4.7828428530
 F     -3.5633932456     1.8783932332     5.0670084721
 H     -6.0853024089     2.9120166302     4.2653315730
 F     -5.3712468851     3.4867694555     4.2912718659
 H     -6.6303820929     0.9823341039     4.7865675134
 F     -7.1294872177     1.6390415325     4.3859200028
 H     -4.6208228064     0.6341030396     5.3862620015
 F     -5.3635371919     0.1025346274     5.4681116488
          8
Energy: -26.768424078821255 Kcal/mole
 H     -3.9636427059     2.4760000602     5.0912871392
 F     -3.5290548048     1.7843609889     5.5080097704
 H     -5.9042456287     2.9681766302     4.2876259942
 F     -5.1252650135     3.4518328717     4.3000695204
 H     -6.6088464098     1.0727318430     4.8384344631
 F     -7.0649524028     1.7827110590     4.4795670278
 H     -4.6729637585     0.5260930183     5.5538127945
 F     -5.4307584670     0.0142428041     5.4856546108
          8
Energy: -26.74556063494626 Kcal/mole
 H     -3.9862750250     2.2388726708     4.5236668594
 F     -3.4934175197     1.4990712652     4.7487765210
 H     -5.9933070331     2.7954499296     4.2359518815
 F     -5.2171733770     3.2669811227     4.1088146258
 H     -6.6535578028     0.8875679417     4.7411701121
 F     -7.1490837807     1.6273635058     4.5219772097
 H     -4.6648785484     0.3458943090     5.0733843950
 F     -5.4207264110    -0.1694829632     5.1363865855
          8
Energy: -26.779163704471188 Kcal/mole
 H     -4.0500879248     2.4432014364     4.6071736314
 F     -3.5056000342     1.7768232640     4.9239733605
 H     -6.0609011995     2.8128388566     4.0704784348
 F     -5.3432962117     3.3837181154     4.0758592578
 H     -6.5317837169     0.8631119818     4.7463237270
 F     -7.0694845733     1.4747106670     4.3247625365
 H     -4.5241192322     0.4988062481     5.2745578748
 F     -5.2745992601    -0.0180431016     5.3772003485
          8
Energy: -26.804117520931783 Kcal/mole
 H     -3.9903487319     2.5202363368     4.8323190291
 F     -3.4896024754     1.9063016356     5.2940834379
 H     -5.8163787131     2.6693877107     3.8244947226
 F     -5.2135113793     3.3302390148     4.0262756229
 H     -6.2261488273     0.6212642161     4.2656608438
 F     -6.6587774398     1.2250754502     3.7279495113
 H     -4.4356221973     0.5240864341     5.3572219211
 F     -5.0871300942    -0.1121111411     5.2491520106
          8
Energy: -26.763199001894776 Kcal/mole
 H     -3.9502763963     2.3523170961     4.6086499096
 F     -3.4475280315     1.7610278882     5.0970249236
 H     -5.8819025316     2.6556793311     3.9055615044
 F     -5.1464784335     3.2016323368     3.8611125282
 H     -6.5014212617     0.8509287296     4.7249825893
 F     -6.9681669187     1.3946723134     4.1528109308
 H     -4.5837468962     0.6500047379     5.6237574770
 F     -5.3456099580     0.1496254711     5.7241281123
          8
Energy: -26.752994396177456 Kcal/mole
 H     -3.9577530905     2.4917755393     4.6617330615
 F     -3.4203487672     1.9245430875     5.1416632012
 H     -5.9391143835     2.6728113369     3.9835171823
 F     -5.2251707423     3.2421302460     3.8995561383
 H     -6.5172371052     0.9090220115     4.9833193795
 F     -6.9586938920     1.3932850235     4.3418412111
 H     -4.5493441306     0.8343717990     5.7732245511
 F     -5.2889274356     0.3382628996     5.9918143380
          8
Energy: -26.732158301123548 Kcal/mole
 H     -4.0961042010     2.8102628360     4.8394373548
 F     -3.6417029942     2.4044130574     5.5247799703
 H     -5.9405770599     2.6223011221     3.8053676541
 F     -5.2542356420     3.2110891653     3.6532062323
 H     -6.4883083405     0.9529509011     5.0387692236
 F     -6.9474081081     1.3849021743     4.3727853642
 H     -4.5946486245     1.1290775391     6.0092584567
 F     -5.2751288555     0.5199580298     6.0917755975
          8
Energy: -26.78636463987047 Kcal/mole
 H     -4.0102870665     2.7877269989     4.8349003971
 F     -3.5105612884     2.3000790388     5.4293435093
 H     -5.9037198879     2.6558443308     3.8337493179
 F     -5.2346397625     3.2802706750     3.7761947661
 H     -6.3849341687     0.8943169963     4.7775138757
 F     -6.8755162259     1.3619063392     4.1597935089
 H     -4.5169183343     0.9763642671     5.8248905052
 F     -5.2039077395     0.3696235138     5.8531785823
          8
Energy: -26.790402346977515 Kcal/mole
 H     -4.0054555344     2.6618964145     4.8205677881
 F     -3.6619582900     2.3408868433     5.6078742712
 H     -5.7091852421     2.3871366505     3.6055509916
 F     -4.9831710281     2.9329277905     3.4794383731
 H     -6.4588224874     1.0066979758     4.9670659403
 F     -6.8423581865     1.3383014811     4.2029792419
 H     -4.7367870898     1.2313167960     6.1418838823
 F     -5.4616371742     0.6805659913     6.2521331738
          8
Energy: -26.81776747836983 Kcal/mole
 H     -3.9502076225     2.5696443272     4.7623189842
 F     -3.5724794382     2.2839605328     5.5475547375
 H     -5.6214925226     2.1969377380     3.5260500468
 F     -4.9013642770     2.7481833318     3.3902833159
 H     -6.3336771803     0.7910911169     4.9303572157
 F     -6.7338168617     1.1077512901     4.1684493669
 H     -4.6310416307     1.1365473438     6.1156584902
 F     -5.3158954816     0.5419428958     6.2509720278
          8
Energy: -26.813209094453015 Kcal/mole
 H     -3.9896476573     2.4148680508     4.7556158482
 F     -3.5987540589     2.1494703760     5.5415263195
 H     -5.7431184736     2.1120586168     3.6507257630
 F     -5.0072760947     2.6260102349     3.4628994397
 H     -6.3946394786     0.7213531566     5.0774083098
 F     -6.8324566956     1.0622548374     4.3473458957
 H     -4.6213118585     0.9882493053     6.1128371986
 F     -5.2834441704     0.3722607905     6.2645868318
          8
Energy: -26.793570167605623 Kcal/mole
 H     -3.8409269213     2.2873720372     4.6519053579
 F     -3.3510303693     1.8503713665     5.2921559200
 H     -5.7765419853     2.2452494386     3.7494332508
 F     -5.0452093753     2.7642595652     3.5579388590
 H     -6.3944332878     0.7119303619     4.9890713414
 F     -6.8574140088     1.1304909660     4.3172492871
 H     -4.4418481178     0.7290625747     5.9300713384
 F     -5.1987462767     0.2395007561     6.0983669201
          8
Energy: -26.837200505539215 Kcal/mole
 H     -3.8551425552     2.2589751498     4.5464125632
 F     -3.3710616763     1.7551215724     5.1402865189
 H     -5.8237592668     2.4300364338     3.7951085064
 F     -5.0787715705     2.9304783613     3.6068528037
 H     -6.4113018843     0.8084112348     5.0122032042
 F     -6.8820380554     1.2791255338     4.3815491739
 H     -4.4901204798     0.6971712696     5.8113907032
 F     -5.2322309588     0.2031427143     6.0260924114
          8
Energy: -26.828689629889226 Kcal/mole
 H     -3.8528470611     2.3262750534     4.5727483635
 F     -3.3543475258     1.8434624098     5.1721473663
 H     -5.8014639384     2.3975671451     3.7807860670
 F     -5.0778411820     2.9356735260     3.6143510066
 H     -6.3364898442     0.7368338742     4.9748112836
 F     -6.8354794260     1.2321405013     4.3861095405
 H     -4.3959512663     0.6632300916     5.7698295257
 F     -5.1272993283     0.1502293655     5.9768301715
          8
Energy: -26.822830691352323 Kcal/mole
 H     -3.8716578887     2.3365387378     4.5732317068
 F     -3.3732828788     1.8994585551     5.2068500962
 H     -5.7977258798     2.2676205391     3.7457557728
 F     -5.1044614702     2.8411272106     3.5686581833
 H     -6.3345401615     0.7104777813     5.0164963524
 F     -6.7813608904     1.0689660834     4.3004472105
 H     -4.4496487286     0.8413145021     5.9289036576
 F     -5.1851539366     0.3510030624     6.1728622221
          8
Energy: -26.835844448419834 Kcal/mole
 H     -3.8461351374     2.3245640368     4.5651927471
 F     -3.3731323437     1.9362543604     5.2481077875
 H     -5.7669316921     2.3087898498     3.7097048779
 F     -5.0275508387     2.7951026300     3.4694865741
 H     -6.3807694711     0.8023284051     5.0591684617
 F     -6.8624673673     1.2479465063     4.4186369288
 H     -4.4273867380     0.8316451688     5.9211696413
 F     -5.1504688291     0.3029641673     6.1174798251
          8
Energy: -26.83115080990362 Kcal/mole
 H     -3.8640918950     2.2743231546     4.4636021895
 F     -3.3750356567     1.9303390352     5.1588632350
 H     -5.7781293226     2.2424811667     3.6617921123
 F     -5.0342701987     2.6967130231     3.3767727718
 H     -6.3484219687     0.8100893174     5.1006738943
 F     -6.8497864447     1.2219568701     4.4526864089
 H     -4.4167412077     0.8348332841     5.8974619031
 F     -5.1305882681     0.3028118955     6.1171539977
          8
Energy: -26.84912481546104 Kcal/mole
 H     -3.8474291237     2.2636774470     4.4416502666
 F     -3.3507782939     1.8525298230     5.0937120616
 H     -5.8005854392     2.3196850905     3.7037499338
 F     -5.0631147872     2.7840276023     3.4184219311
 H     -6.3657206471     0.8504220006     5.1198691539
 F     -6.8644722688     1.2977424914     4.4937380188
 H     -4.3917362562     0.7852684534     5.8572161833
 F     -5.1212240569     0.2824363920     6.0936405193
          8
Energy: -26.83369406940446 Kcal/mole
 H     -3.8169565428     2.2396829821     4.3973835588
 F     -3.3229521482     1.7795244479     5.0179500592
 H     -5.7915623855     2.3247222538     3.7004941315
 F     -5.0568901204     2.8011642012     3.4281914807
 H     -6.3496943378     0.8272516421     5.0873824659
 F     -6.8495619226     1.2577414191     4.4504366679
 H     -4.3729261687     0.7060839727     5.7813410444
 F     -5.1121411554     0.2444170739     6.0664969282
          8
Energy: -26.831398686151715 Kcal/mole
 H     -3.8112614103     2.2012370342     4.3554698243
 F     -3.3098487502     1.7253873478     4.9579990106
 H     -5.7791456603     2.3401386265     3.7138028385
 F     -5.0547345735     2.8149474494     3.4126813363
 H     -6.3253684092     0.8383696118     5.1095533986
 F     -6.8339922078     1.2805241880     4.4877092363
 H     -4.3685780355     0.7060016663     5.7657669569
 F     -5.1031344096     0.2483960738     6.0689386161
          8
Energy: -26.83738368752512 Kcal/mole
 H     -3.8172430093     2.2497924895     4.3847750569
 F     -3.2981216537     1.7581338713     4.9589473493
 H     -5.7948947626     2.3908178667     3.7462198094
 F     -5.0697747494     2.8906499555     3.4907636494
 H     -6.3333384128     0.8588504887     5.1040475687
 F     -6.8324785558     1.2728178500     4.4556810509
 H     -4.3800611337     0.7747360951     5.7912375055
 F     -5.1205058198     0.3389423384     6.1117284859
          8
Energy: -26.850109184998644 Kcal/mole
 H     -3.8290432569     2.2373795943     4.3850839309
 F     -3.2974956779     1.7587923467     4.9589309642
 H     -5.8105950009     2.3709309938     3.7323109007
 F     -5.0807433017     2.8714148593     3.4920581223
 H     -6.3348561629     0.8474425324     5.0873949372
 F     -6.8412549939     1.2778339545     4.4555623267
 H     -4.3602652635     0.7545006097     5.7857517133
 F     -5.1030748185     0.3108267574     6.0895221492
          8
Energy: -26.850134512216897 Kcal/mole
 H     -3.8091034359     2.2405456952     4.3698416117
 F     -3.2985534393     1.7586243923     4.9597395340
 H     -5.7986062310     2.3640022922     3.7135241884
 F     -5.0705551803     2.8639047391     3.4666877828
 H     -6.3455821064     0.8521730440     5.0989873488
 F     -6.8406860074     1.2775830118     4.4549473761
 H     -4.3650114218     0.7567785780     5.7776352607
 F     -5.1028230458     0.3107059164     6.0899527083
          8
Energy: -26.857124388799207 Kcal/mole
 H     -3.8160187034     2.2361483692     4.3722996060
 F     -3.2981866003     1.7588576603     4.9596091431
 H     -5.7993931517     2.3685694896     3.7203088008
 F     -5.0705134360     2.8636624599     3.4663278748
 H     -6.3385941800     0.8481099128     5.0908236632
 F     -6.8410567008     1.2777985515     4.4553804407
 H     -4.3614027993     0.7578035903     5.7878228754
 F     -5.1030144748     0.3106515419     6.0894122789
