          8
Energy: -13.730593691226773 Kcal/mole
 H      1.4147042624    -0.0574258899    -5.1012638760
 F      1.2026878203     0.6066339840    -4.5054765716
 H      0.7300037417    -1.9509329349    -3.6353515662
 F      0.9224531636    -2.5736938024    -4.2803485600
 H      0.3356407664     2.0039561619    -4.4488579953
 F      0.0078072275     2.8321761077    -4.2309913109
 H      0.9997584896    -0.3133333393    -2.4391288678
 F      0.5243341451    -1.0827192334    -2.2877814574
          8
Energy: -20.659594240053224 Kcal/mole
 H     -5.3857726873     7.2403774597    -0.9450761891
 F     -4.7195731353     7.1886175354    -1.5730794272
 H     -5.3215836594     5.1695168218     0.4157421730
 F     -6.0823257771     5.5369327406     0.0591387896
 H     -3.3380773396     4.2636854317    -0.5669351754
 F     -3.6600331167     4.0274000114     0.2585360099
 H     -3.6744633070     5.9233533583    -1.7695376806
 F     -3.2632089575     5.1215539408    -1.9394687083
          8
Energy: -24.40009302269246 Kcal/mole
 H     -3.6407869871     3.3842634537    -6.1126355001
 F     -3.0170941085     3.7000291229    -5.5191810070
 H     -5.3318231327     4.7199556441    -7.3115928283
 F     -5.3478382086     3.8134219607    -7.1743733027
 H     -4.8901985142     6.4149366024    -6.2354689842
 F     -5.2273451201     6.3715058381    -7.0871349603
 H     -3.6304460024     5.2165680948    -5.0864955617
 F     -4.0769884583     6.0059497800    -4.9509765954
          8
Energy: -22.194830831658095 Kcal/mole
 H     -0.7479820319     6.3660931954    -3.4284033875
 F     -1.5823950942     6.6905205450    -3.2299323910
 H      0.3006829536     4.5646317747    -4.2262753391
 F      0.6679739012     5.3108147014    -3.8400145467
 H     -1.3227007762     3.4553436373    -4.6549982636
 F     -0.4134663654     3.3408559203    -4.6222210029
 H     -2.4845017360     5.3983771452    -3.6892345091
 F     -2.5801202063     4.6047786660    -4.1386202699
          8
Energy: -22.202351308090783 Kcal/mole
 H     -4.6312787262     0.9018792122     6.7121112158
 F     -4.7747700143     1.4580243454     7.4269551436
 H     -5.4878498385     0.8609669855     4.5229847863
 F     -4.9292129960     0.4075257830     5.0914959594
 H     -7.2440358873     2.1097801468     5.0544401121
 F     -6.6983023743     2.1586319995     4.3191324015
 H     -6.6488247408     2.1370281021     7.2616977971
 F     -7.3908639936     2.1692094476     6.7238956881
          8
Energy: -20.835870376360532 Kcal/mole
 H     -3.5022839554     3.3894369403     6.1048963392
 F     -4.1145909774     3.3267508457     5.4251614170
 H     -1.6650201475     4.1638539685     6.8677893384
 F     -2.2823080455     3.7191999836     7.3797732099
 H     -1.9990777788     6.2228434555     5.2565490512
 F     -1.2857908659     5.8007319000     5.6488915222
 H     -4.2325724169     5.0120511409     4.9780951109
 F     -4.2478316892     5.8659705557     4.6442122159
          8
Energy: -24.88775531025263 Kcal/mole
 H     -1.1632626820     1.2412498969    -4.8068428850
 F     -0.9834016098     0.9792485766    -5.6670139743
 H     -2.3155718435     3.2467570611    -4.2327570290
 F     -2.0480781013     2.5331291624    -3.7227851473
 H     -1.8750922831     4.0743380994    -6.3204827631
 F     -2.4031233140     4.3711580742    -5.6320278750
 H     -1.1862086522     2.2343327086    -6.8709519245
 F     -1.1989636116     2.9832829553    -7.3999130185
          8
Energy: -23.778043738922833 Kcal/mole
 H     -2.0833073834    -0.1002255627    -0.5575971713
 F     -2.3619457826    -0.4502223959     0.2428726028
 H     -0.2413064925    -0.6248806288    -2.0526060227
 F     -0.9880728916    -0.1255559448    -2.2367358821
 H      0.7220133918    -2.0823179416    -0.6088278961
 F      1.0456508647    -1.4857165970    -1.2254433530
 H     -1.2764966936    -1.5408782555     0.6132836793
 F     -0.6422797118    -2.1972313883     0.7019312127
          8
Energy: -20.09225246627011 Kcal/mole
 H     -1.1650280851    -1.3930122679     1.3291148424
 F     -1.5092480512    -1.8522372710     2.0443169198
 H      0.8132107016    -0.9201389351     0.8594632962
 F      0.0530334870    -0.4669032930     0.6194694314
 H      0.9822514466    -2.9165260654     2.1180375952
 F      1.3780799552    -2.1926719650     1.7177326702
 H     -0.6937586147    -3.8118880797     2.2682060786
 F      0.0926068149    -4.1809520763     2.5619920170
          8
Energy: -22.747911114835063 Kcal/mole
 H      1.8739831495    -2.6730840901     3.2851615722
 F      2.4225610598    -3.1841452207     2.7571769161
 H      2.2229297609    -1.4969969804     5.2878139077
 F      1.4775658629    -1.5418839694     4.7555481679
 H      4.3733546895    -1.9282826437     4.8435781226
 F      3.9568491799    -1.2301346760     5.2678440483
 H      4.0409743761    -3.6819779392     3.4151045366
 F      4.6169607405    -3.4527860750     4.0908262229
          8
Energy: -22.809775489773358 Kcal/mole
 H      5.3667253433    -5.0045629346     3.3633067065
 F      4.9851916495    -5.3737054324     2.6156069962
 H      4.6452334936    -4.9908352841     5.3392836630
 F      5.5024018292    -4.8644921842     5.0389690521
 H      2.5257788994    -4.6268126690     4.3595279286
 F      2.9760508947    -4.9824028730     5.0748598355
 H      3.5709987814    -4.3002379559     2.4965145195
 F      2.7559204521    -3.8945148235     2.6057164288
          8
Energy: -22.561757771017938 Kcal/mole
 H      2.2562387373    -4.9178608523     2.9759246800
 F      1.7542216997    -5.4978017438     3.4784547352
 H      2.6274920400    -4.7354557141     0.9159708863
 F      2.9503498216    -4.2323370003     1.6113293641
 H      1.3221909817    -5.7279876110    -0.2720092445
 F      2.1454828774    -5.6620173550    -0.6704152934
 H      0.7498384594    -5.5543254950     2.2083264370
 F      0.3411226608    -5.5459637125     1.3874912060
          8
Energy: -20.621250956764044 Kcal/mole
 H      3.7796672799    -3.1229822327     0.0042912891
 F      4.1279401159    -3.0470148153     0.8491723359
 H      3.7600672935    -5.2942367334    -0.9374459716
 F      3.1200259592    -4.7609593446    -1.3206578150
 H      4.7640758099    -5.9168537073     0.9302520157
 F      4.9000424186    -6.3163540675     0.1161257703
 H      3.8572495618    -4.4824349847     2.0686026996
 F      4.3602982308    -5.1520830238     2.4419691956
          8
Energy: -23.414724975459876 Kcal/mole
 H      4.6920175763    -4.2906226758    -5.7834251330
 F      4.9682170099    -5.0844829306    -6.1500158703
 H      4.8998795939    -2.7299317191    -3.8804745385
 F      4.1980890700    -3.0899969681    -4.3481625509
 H      6.8110447370    -3.4591152592    -3.9898619301
 F      6.5140466364    -2.7892885054    -3.4384879661
 H      6.3558313879    -5.1045366376    -5.3216229968
 F      7.1720521652    -4.8355417967    -5.0017567463
          8
Energy: -24.74145638993636 Kcal/mole
 H      3.5544063541    -6.5327488699    -1.2777978915
 F      4.3881028235    -6.1580737980    -1.2039210522
 H      1.9463700549    -6.5007447504     0.1429243767
 F      1.8885331294    -6.7630787425    -0.7338451293
 H      3.3935866687    -5.9621041291     1.5451609335
 F      2.4841799910    -5.8704276523     1.6190792543
 H      4.8962629140    -6.3811549137     0.2327473585
 F      4.9053737525    -6.3615704107     1.1494929284
          8
Energy: -24.00128534970429 Kcal/mole
 H      3.3759746733    -6.5558894282    -2.0361358617
 F      3.2489134105    -6.4629826549    -1.1327462631
 H      3.7316914464    -5.6601364833    -3.7654995830
 F      3.7740857880    -6.5667817638    -3.6347859448
 H      2.5849327867    -3.6647646197    -3.2121733869
 F      2.9043655899    -3.9481598213    -4.0236774497
 H      2.5990044859    -4.9650759525    -1.2437505924
 F      2.3110120514    -4.1287358561    -1.4855864888
          8
Energy: -25.561096777787498 Kcal/mole
 H      0.7689419183    -3.0713563109    -2.9759173351
 F      0.2149899675    -2.7712968181    -3.6422434841
 H      0.6595356508    -3.7844071840    -1.1978018149
 F      1.3885529815    -3.8525640011    -1.7498682781
 H     -1.4657676557    -3.4323462289    -1.1924493211
 F     -0.8711772963    -3.4124369268    -0.4946277649
 H     -1.5347503245    -3.0719372697    -3.3110175891
 F     -2.2468608675    -3.2496292953    -2.7612784523
          8
Energy: -22.88618881776989 Kcal/mole
 H     -3.5090864166     0.6543331777     2.8825830412
 F     -2.9369948331     0.0568363271     3.2783073563
 H     -4.7873589662     0.6075163265     1.2338617308
 F     -4.6566129012     1.3663255485     1.7318607579
 H     -5.5224058987    -1.2443274614     1.5101721493
 F     -5.4362651159    -0.9668147528     0.6404276683
 H     -4.1562253591    -1.2122996954     3.3382121563
 F     -4.7690406705    -1.8528317219     3.1035525792
          8
Energy: -24.82911139566164 Kcal/mole
 H     -0.9279121362     1.9762348373     2.1276103541
 F     -0.2646378184     2.4509256792     2.5466864616
 H     -2.9489455906     1.6229309308     2.3880426760
 F     -2.2992640911     1.1339457922     1.9641364559
 H     -3.1536381140     3.3946530887     3.5193195085
 F     -3.8086808593     2.9146866489     3.0933615078
 H     -1.0584449023     3.4465834417     3.7816231207
 F     -1.7707934708     3.6602537914     4.3180870044
          8
Energy: -23.681966724710236 Kcal/mole
 H     -5.7078278208    -1.9102458028     3.1790977655
 F     -5.3667662186    -2.4696774489     2.5375354406
 H     -4.8457412137    -1.1149494381     4.9562777346
 F     -5.6804082568    -1.1399042280     4.5773355415
 H     -3.3203455518    -2.2831945708     4.8889445894
 F     -3.3956042552    -1.6833150406     5.5784151666
 H     -3.9982265181    -3.2061054514     3.2383242952
 F     -3.4668394861    -3.5490096341     3.9023525656
          8
Energy: -22.662083008838124 Kcal/mole
 H      1.7916108846     0.5792667370     6.5855095814
 F      2.6341977380     0.2512511528     6.7382910302
 H     -0.5946727330     0.1227735197     6.5695191692
 F     -0.0238779273     0.8404250993     6.5618706389
 H     -0.4277561173    -1.9716966558     6.5461827590
 F     -1.1722576519    -1.4428461908     6.4629742817
 H      2.1041796302    -1.5322081984     6.5642580937
 F      1.6759893756    -2.2249262547     6.1427325308
          8
Energy: -23.344762999000807 Kcal/mole
 H     -5.4743958190     3.9420816814     0.8208224918
 F     -6.2637095621     3.8913173349     1.2848222722
 H     -3.9297353075     2.6206717549    -0.0838826253
 F     -4.1199113331     3.4994477895    -0.2640901732
 H     -4.7716664957     0.7816310798     1.3926238464
 F     -4.4363847633     0.9025162320     0.5477203372
 H     -6.2143316341     2.3823372399     2.1246900884
 F     -5.7972973504     1.7079323111     2.5852868733
          8
Energy: -24.615951989218644 Kcal/mole
 H     -7.1655136977     7.0944866351     3.1440423799
 F     -7.4158952363     7.3696357572     3.9821897689
 H     -6.6672742083     4.9612445528     2.3830116942
 F     -6.3582636335     5.7978325864     2.1696530133
 H     -7.0796436314     4.0121331194     3.9717589373
 F     -7.2716115912     3.5929008168     3.1791167867
 H     -6.8534923070     5.9221060207     4.7463895262
 F     -6.7758810217     5.1122144719     5.1694039085
          8
Energy: -25.447784300342732 Kcal/mole
 H     -3.5685836844     1.8086925963     3.3770959191
 F     -2.7416560724     1.6970284204     3.7573732339
 H     -4.3823628551     3.1747412193     1.9538200261
 F     -4.8298146949     2.5988975837     2.5097696267
 H     -2.2740863198     3.9307258334     1.8625166295
 F     -3.0041736348     4.2334235248     1.3975052101
 H     -1.4054574174     2.7219458926     3.3470472585
 F     -1.0363126333     3.3979465890     2.8494086477
          8
Energy: -25.250548751958576 Kcal/mole
 H      0.2454505817     3.4663622319     4.6152368631
 F      1.0430517563     3.7070125170     4.2320804897
 H     -1.8143658591     4.1048747781     4.3778697987
 F     -1.4857254470     3.6068859992     5.0742114216
 H     -1.2435864342     5.5554319098     3.1870365523
 F     -2.0297740639     5.0866663340     3.1317478026
 H      0.9049994608     5.3901977866     3.4097388872
 F      0.3519648838     6.0594175349     3.1144649718
          8
Energy: -24.849378008725438 Kcal/mole
 H      2.5338361684     5.4888126252    -2.0928557231
 F      1.6402582420     5.5816154675    -1.9090212271
 H      4.0562616556     3.9659205061    -2.0979443356
 F      4.2018645625     4.8564938175    -2.2609411775
 H      2.4048670794     2.5780606163    -1.2533383631
 F      3.1165551703     2.4274241387    -1.8116373089
 H      1.4147522016     4.4540709430    -0.8310736067
 F      1.3798158111     3.7673096409    -0.2244210186
          8
Energy: -25.119341532642608 Kcal/mole
 H      1.8561603722     4.3681600054     4.4086291541
 F      1.1933847287     4.0108144283     4.9320043396
 H      3.5812736839     3.7782244679     3.3891786207
 F      3.2749778944     4.6167739448     3.5987177915
 H      2.7232002972     1.9624304440     2.9112067502
 F      3.5853137093     2.1842536862     2.6911069687
 H      1.0652411103     2.4612624864     4.1979052670
 F      1.2794102383     1.8459630500     3.5525935686
          8
Energy: -25.689988941041094 Kcal/mole
 H      3.2066303776     6.6134097201     0.2953651958
 F      3.3736201614     7.1414617071     1.0262307861
 H      2.3201585143     4.5832362008    -0.2229851427
 F      2.8510384812     5.1629956770    -0.6951444491
 H      1.3608806693     4.5728197051     1.5546510252
 F      1.3850655492     3.8706983466     0.9653041922
 H      2.2757201411     6.4167068091     1.9546835524
 F      1.6540192867     5.9811632636     2.4691530535
          8
Energy: -25.698789156297494 Kcal/mole
 H      1.9805667747     3.4595330961     0.4100973385
 F      2.5241116690     3.0909883823     1.0501151052
 H      0.0632596617     3.1747190689    -0.4946869458
 F      0.7517472057     3.7345378315    -0.7259375779
 H     -0.4011438782     1.7137877984     0.8226926725
 F     -0.9951111253     2.1547709239     0.2808201853
 H      1.5173295258     1.7085967655     1.8465780714
 F      0.7752469924     1.1720680511     1.7982101874
          8
Energy: -24.795585207930287 Kcal/mole
 H     -3.9209555964     1.0248789403    -1.4483195075
 F     -3.6005445039     1.3839516024    -0.6677475664
 H     -5.6280206891     1.2035254270    -2.2429444162
 F     -4.9555591434     0.8047735553    -2.7221953050
 H     -6.6810132940     1.4462148893    -0.2483389642
 F     -6.9808083956     1.5147708042    -1.1122324667
 H     -4.7726418700     1.1128818011     0.5698171181
 F     -5.5325436580     1.1218349217     1.0830014068
          8
Energy: -24.733427173455283 Kcal/mole
 H     -5.4018676859    -0.7383543391    -0.7326375029
 F     -4.8826129276    -1.3516584834    -0.2909118838
 H     -5.6111524470     0.9758468482    -2.0071880392
 F     -6.2453802055     0.4616272866    -1.5897884790
 H     -3.3177843134     0.9861588065    -2.2002481124
 F     -3.9091562103     1.5315394230    -2.6403938413
 H     -3.3644658335    -0.8834010746    -0.9591844878
 F     -2.7648778805    -0.5828169675    -1.5845103877
          8
Energy: -25.959889038976314 Kcal/mole
 H      0.8187491682     3.6139990046    -0.7539277487
 F      0.9392413890     3.6971481577    -1.6591663046
 H     -0.6042051328     4.3382948383     0.7182718571
 F      0.1561294472     3.8597021288     0.9019273626
 H     -1.7545946784     5.4734902089    -0.7559253047
 F     -1.8685852762     5.3640624650     0.1473579911
 H     -0.2442820079     4.9133487385    -2.1800061690
 F     -0.9699465991     5.4651774143    -2.2789253968
          8
Energy: -26.06504171407815 Kcal/mole
 H     -1.4427901147     3.7365163599    -0.2563558211
 F     -2.1965328939     4.0647146997    -0.6626151872
 H      0.5663649748     3.8881304864    -0.1779617231
 F      0.0705086731     3.4967430201     0.4867422556
 H      0.3816059187     4.9526910293    -2.1134804798
 F      1.1029741503     4.5650198237    -1.7008936274
 H     -1.6827222392     5.0917455253    -1.8475284454
 F     -1.1425900641     5.5939380644    -2.3924586126
          8
Energy: -25.88538826212414 Kcal/mole
 H      1.1183092044     7.0591405077     2.6813362406
 F      1.9997481060     7.3022724042     2.6117564765
 H     -0.0943743804     6.1913591483     1.1210981309
 F     -0.3908581252     6.4074679503     1.9615048032
 H      1.3611980776     6.4342226939    -0.3592613193
 F      0.5172556392     6.0851018055    -0.4415095166
 H      2.6318215979     7.3737255993     0.9572359994
 F      2.7399071943     7.2192496569     0.0598265683
          8
Energy: -24.95259257829821 Kcal/mole
 H     -4.4953573368     6.4088732980     0.3138064994
 F     -4.1406640751     7.2299409132     0.1114956959
 H     -4.2776287812     4.3798136829     0.0423778000
 F     -4.7082316198     4.7617610351     0.7562310170
 H     -2.9428612101     4.6466310579    -1.7457769906
 F     -3.3959714942     3.9752179879    -1.3159112442
 H     -2.9060999749     6.7720475874    -1.1985041319
 F     -2.3459380247     6.3699819715    -1.8030294251
          8
Energy: -25.836373773756094 Kcal/mole
 H     -2.0108838018     2.3181025039    -3.0839394935
 F     -1.1262299319     2.1962633225    -3.2923423348
 H     -3.5705068227     3.9568305584    -3.1308659015
 F     -3.5017672999     3.0501122428    -3.0124354404
 H     -2.2672126373     5.4177676138    -3.2802021155
 F     -3.1762898351     5.5276665832    -3.3290883602
 H     -0.6465038812     3.8321678270    -3.0823743365
 F     -0.6511731511     4.7486270889    -3.0512356265
          8
Energy: -25.986817337439078 Kcal/mole
 H     -0.1885258819     4.6408433655    -4.7867894123
 F      0.3980201306     4.8449591225    -5.4614667670
 H     -2.1441176623     4.1936047467    -4.4277385073
 F     -1.4877569599     4.3380695989    -3.8038719071
 H     -2.4011582111     4.3553130999    -6.6036370087
 F     -2.8873448911     3.9095046518    -5.9666390967
 H     -0.5070974126     5.1407792315    -6.8736047973
 F     -1.1734776035     5.3268387581    -7.4754422286
          8
Energy: -25.372860210168227 Kcal/mole
 H     -2.9281149733     1.2209805460    -3.4704810918
 F     -2.6527693328     1.5135538857    -4.2947835964
 H     -2.0213949835     1.2895883297    -1.4538973965
 F     -2.7380981921     0.8316841540    -1.7967519965
 H     -0.3180659411     2.4961406301    -1.7623063176
 F     -0.6710858456     2.3431141763    -0.9299308906
 H     -1.2144273222     2.1808279141    -3.8492229236
 F     -0.4562879335     2.5393246246    -3.4782865735
          8
Energy: -26.424670412719507 Kcal/mole
 H     -2.7007968387     0.2404508482    -3.8429689221
 F     -2.0655360561    -0.4181355301    -3.9029415862
 H     -3.5687422559     1.4219555453    -2.4827162517
 F     -3.7255801847     1.4510554359    -3.3857356648
 H     -2.4889228399     0.4364220561    -0.8858659167
 F     -2.9759622679     1.2125680359    -0.9216292159
 H     -1.7991744611    -0.8588497166    -2.2973470476
 F     -1.7115125621    -0.9151993471    -1.3862877133
          8
Energy: -26.240937983249665 Kcal/mole
 H     -4.8180067965    -0.6364295201    -5.4358869170
 F     -4.3534702635    -1.3370275287    -5.8022982156
 H     -6.0187076912    -0.0923447692    -3.7901457347
 F     -5.6410521698     0.4331927496    -4.4398192092
 H     -5.8238685347    -1.9291291370    -2.8853781351
 F     -6.4629027120    -1.2878206954    -2.7396118737
 H     -4.4832859068    -2.5299815066    -4.5166336541
 F     -4.6668940536    -2.9823139852    -3.7403782984
          8
Energy: -26.057334694992363 Kcal/mole
 H     -6.3511824906    -2.8315370143    -4.2250256185
 F     -6.9931900845    -3.3691992582    -3.8513485375
 H     -4.3304836224    -2.7516657621    -4.6954028365
 F     -4.9949817812    -2.1531964918    -4.8982962306
 H     -4.1936399612    -4.8880551198    -3.8218557687
 F     -3.5615621876    -4.2862902320    -4.1033619106
 H     -6.3529602899    -4.8866980159    -3.6375719985
 F     -5.8072232640    -5.6229288098    -3.6695769455
          8
Energy: -26.29958412714197 Kcal/mole
 H     -5.3366069271    -5.9317724461    -4.5090857701
 F     -4.7609226070    -6.5394297345    -4.1346138975
 H     -6.4965619296    -4.2491583394    -3.8547963642
 F     -6.2611556759    -4.4617567338    -4.7151886110
 H     -6.2406874526    -4.7575377675    -1.8946839509
 F     -6.7559156372    -4.0826331139    -2.2409968533
 H     -4.9850707080    -6.2735987728    -2.4860482535
 F     -5.2247995135    -5.9728404585    -1.6536039393
          8
Energy: -26.56353388619408 Kcal/mole
 H     -5.7745237505    -5.0388443323    -2.9199669448
 F     -4.8799923237    -5.1566453790    -2.7561822081
 H     -7.3544928657    -3.8311811318    -2.1466733632
 F     -7.4035329201    -4.4573904931    -2.8147646061
 H     -5.9678006545    -2.7979727443    -0.9009917619
 F     -6.8846101662    -2.8127600025    -0.9124222554
 H     -4.4799674764    -3.9072546492    -1.7982204222
 F     -4.3731058314    -3.1540916851    -1.2861509558
          8
Energy: -26.359797390887707 Kcal/mole
 H     -6.2798893850    -3.8048163410    -2.8452502119
 F     -5.6697611421    -3.6099938180    -3.5015098493
 H     -6.2299984672    -3.5007365434    -0.7323878517
 F     -6.8681224865    -3.9012228699    -1.2551664265
 H     -4.1365014657    -2.8888923968    -0.8334578949
 F     -4.7325307692    -2.8788045044    -0.1366535437
 H     -4.1754227695    -3.2787228987    -2.8654809208
 F     -3.4598400619    -3.1454503636    -2.3077454817
          8
Energy: -26.514141999831452 Kcal/mole
 H     -5.3224685505    -2.7870891609    -2.7385840801
 F     -5.2362259107    -3.0575608472    -3.6105337771
 H     -5.4383695228    -1.0392938185    -1.5075259028
 F     -5.4723453424    -1.9344583818    -1.3115283309
 H     -4.9589788739     0.1355777667    -3.2576128090
 F     -5.1313617625     0.3842848326    -2.3919812852
 H     -4.9852840230    -1.6859009882    -4.4385534275
 F     -4.8374250461    -0.8075725392    -4.6566494125
          8
Energy: -26.554925638325273 Kcal/mole
 H     -6.0952055655    -2.8921154556    -5.0310690890
 F     -5.4454696016    -2.8647771883    -5.6775865260
 H     -6.9439335220    -1.6869134393    -3.4811616875
 F     -7.1758664211    -2.5350112265    -3.7415964657
 H     -5.4016201155    -0.2145314585    -3.7679074023
 F     -6.1072393909    -0.2324548677    -3.1825278763
 H     -4.5982056701    -1.3806146890    -5.3810160751
 F     -4.3485917285    -0.5925448795    -4.9841182853
          8
Energy: -26.46498576430008 Kcal/mole
 H     -6.2873268145    -1.5489744639    -5.6322460165
 F     -5.6459752664    -1.9222757735    -6.1709512458
 H     -6.7012008318    -1.2006914721    -3.6618455437
 F     -7.1948511084    -0.8813120207    -4.3655465956
 H     -4.9482437850    -2.2106315133    -3.1070992181
 F     -5.6817009774    -1.9635163779    -2.6153028612
 H     -4.4060177654    -2.3589490201    -5.1518198469
 F     -3.9002396147    -2.6140840948    -4.4307209939
          8
Energy: -26.66452048083525 Kcal/mole
 H     -6.2847966337    -1.3094679843    -5.5229543008
 F     -5.5291729350    -1.3826081179    -6.0373202665
 H     -6.8470657762    -1.5749825312    -3.4918406614
 F     -7.3397876715    -1.3064415101    -4.2170991352
 H     -4.8541686653    -1.9243282779    -2.9043551146
 F     -5.6400189304    -2.0525599276    -2.4495089815
 H     -4.1888602244    -1.5011482202    -4.9450796043
 F     -3.7168100463    -1.6005072750    -4.1652171757
          8
Energy: -26.827349106872845 Kcal/mole
 H     -6.3458608287    -1.6982226456    -5.4935686959
 F     -5.6053594101    -1.5996963093    -6.0253949928
 H     -6.8553938329    -1.7698296298    -3.4584694681
 F     -7.3934712151    -1.8385709276    -4.1978180765
 H     -4.8379011085    -1.4979562082    -2.9311991069
 F     -5.5664907658    -1.6481937260    -2.3950323423
 H     -4.3394576819    -1.3085067620    -4.9702664299
 F     -3.8220224935    -1.2225136744    -4.2180995504
          8
Energy: -26.85971076995915 Kcal/mole
 H     -6.3422987651    -1.7006554801    -5.4890978872
 F     -5.6055483693    -1.5995672531    -6.0256321589
 H     -6.8608965956    -1.7887415070    -3.4530039120
 F     -7.3931793062    -1.8375676963    -4.1981080116
 H     -4.8553735411    -1.4790640178    -2.9223458389
 F     -5.5824355599    -1.6445114177    -2.3885884233
 H     -4.3440644952    -1.3342792346    -4.9636402386
 F     -3.8217781127    -1.2211465042    -4.2184510545
