          8
Energy: -26.857124388799207 Kcal/mole
 H     -3.8160187034     2.2361483692     4.3722996060
 F     -3.2981866003     1.7588576603     4.9596091431
 H     -5.7993931517     2.3685694896     3.7203088008
 F     -5.0705134360     2.8636624599     3.4663278748
 H     -6.3385941800     0.8481099128     5.0908236632
 F     -6.8410567008     1.2777985515     4.4553804407
 H     -4.3614027993     0.7578035903     5.7878228754
 F     -5.1030144748     0.3106515419     6.0894122789
