          20
Energy: -79.0210788343049 Kcal/mole
 H     -0.9368840858    -0.8571400214    -3.7234554810
 F     -1.6943244090    -1.3504777457    -3.5692120160
 H     -2.2573211282     1.6369496348    -1.7938045448
 F     -1.3562538736     1.4974853151    -1.6962519632
 H      1.0177246114     3.7944040913    -0.1414905430
 F      1.6778707358     4.3836044407    -0.3821958458
 H     -0.5510749373     2.2417936497    -0.4404513999
 F     -0.1547359863     2.7035528047     0.2455390655
 H      3.2942740956     3.9995674443    -0.4232767255
 F      4.1476521843     3.6784038452    -0.5206870968
 H      2.5398776489     1.4376044724    -2.1903678364
 F      1.6265496775     1.3820922458    -2.1300403186
 H     -3.1802712944    -0.6650920192    -3.7825637944
 F     -3.9555908422    -0.1771478868    -3.8235408905
 H      4.2759909456     2.4139959430    -1.5848083586
 F      4.1451685714     1.7145786428    -2.1632458630
 H      0.7902845825     0.5710030114    -3.3320435041
 F      0.3903345974     0.0992341667    -4.0090687375
 H     -4.0170776943     1.0664882840    -2.7415974701
 F     -3.8518065812     1.7183495336    -2.1181783731
