          20
Energy: -79.04880755658328 Kcal/mole
 H     -1.0434191777    -1.1761783114    -3.7032619849
 F     -1.9358560975    -1.3820766595    -3.7485523214
 H     -2.0266482702     1.9276210253    -2.7999287917
 F     -1.1986828483     1.6672664710    -2.5039933828
 H      0.9757823750     2.9861891349     0.2204189706
 F      1.5497027411     2.7466190310     0.8942962433
 H     -0.3810509964     2.7684958623    -1.5638973123
 F      0.0042479401     3.4135758277    -1.0382495522
 H      3.1851314617     2.7097820192     0.6278641718
 F      4.0559571611     2.6088530905     0.3588568251
 H      2.5263587742     0.7528213140    -1.7948044692
 F      1.6144788928     0.7934180180    -1.8826451745
 H     -3.0419095097    -0.4663731834    -4.5854823440
 F     -3.6061103165     0.1563080241    -4.9526806056
 H      4.2358324768     1.4624030788    -0.8248397128
 F      4.1284595035     0.8383702699    -1.4881217780
 H      0.8982096498    -0.1968257651    -3.0214064951
 F      0.5593480969    -0.7700034576    -3.6519056472
 H     -3.6532026113     1.5360890177    -4.0366465026
 F     -3.4949384609     2.2222081048    -3.4492096489
