          20
Energy: -79.059758599519 Kcal/mole
 H     -1.2958778379    -1.3815885078    -3.4081159317
 F     -2.2085930835    -1.4641894587    -3.4400057949
 H     -1.7787962809     1.9527626791    -3.4951509303
 F     -1.0462051190     1.6668568556    -3.0234974032
 H      0.9624952805     3.1698359052    -0.2214397873
 F      1.4426142586     2.9872016694     0.5381782106
 H     -0.2265847228     2.8076557750    -2.1236094965
 F      0.1630076817     3.4785401456    -1.6347118388
 H      3.0708996617     2.6818105087     0.4474245681
 F      3.9373432119     2.4263214805     0.2896591384
 H      2.4034131013     0.4548251532    -1.7467814641
 F      1.5145636444     0.5829980400    -1.9322736581
 H     -3.1311241306    -0.6885016951    -4.5752038599
 F     -3.5756725435    -0.1300517357    -5.1508768152
 H      4.0802999268     1.1110304167    -0.6996452541
 F      3.9640813869     0.4116382960    -1.2812232046
 H      0.7348938449    -0.5370364167    -2.8792030372
 F      0.3466099444    -1.1966382122    -3.3842278722
 H     -3.3730264403     1.4484158887    -4.7316082166
 F     -3.1068807297     2.2536165107    -4.3827423124
