          20
Energy: -79.07379819220704 Kcal/mole
 H     -1.4009299175    -1.3187840020    -3.1451268195
 F     -2.3140224294    -1.4021134731    -3.1307301572
 H     -1.8109653917     2.0541401666    -3.3975762450
 F     -1.0945203335     1.7715745202    -2.8998291868
 H      1.0480820122     3.3229670436    -0.2301698153
 F      1.5274350580     3.1582306047     0.5340105058
 H     -0.2037734967     2.9263177094    -2.0830778042
 F      0.2316379346     3.6018606330    -1.6415490465
 H      3.1405391790     2.7758429122     0.4931260285
 F      3.9928704005     2.4604889982     0.3707642789
 H      2.3268247334     0.4528556710    -1.5282190020
 F      1.4629065650     0.6421677912    -1.7704901715
 H     -3.2763981797    -0.6348141106    -4.2399784988
 F     -3.7355318367    -0.0912201339    -4.8184168045
 H      4.0269037791     1.0472806474    -0.4763043976
 F      3.8545503405     0.3056605966    -0.9873650520
 H      0.6464431436    -0.4676188819    -2.7117094707
 F      0.2379666466    -1.1228770859    -3.2063534209
 H     -3.4428643660     1.5177049024    -4.5686996675
 F     -3.1268708776     2.3397055082    -4.3130590616
