          20
Energy: -79.07412264362162 Kcal/mole
 H     -1.4019753461    -1.3176761887    -3.1431287601
 F     -2.3152848643    -1.3971444343    -3.1221639807
 H     -1.8006467151     2.0518783257    -3.4086149905
 F     -1.0802040687     1.7703503351    -2.9160772927
 H      1.0481513049     3.3076636898    -0.2351272083
 F      1.5214274166     3.1362825410     0.5313760363
 H     -0.1900208410     2.9238138159    -2.0952688679
 F      0.2445171552     3.5982979406    -1.6512678596
 H      3.1370574699     2.7782173099     0.4837726910
 F      3.9923210761     2.4729866279     0.3563074222
 H      2.3208078157     0.4471271882    -1.5313183065
 F      1.4585441843     0.6371860859    -1.7788421346
 H     -3.2777158208    -0.6335876874    -4.2377873995
 F     -3.7354619389    -0.0912851929    -4.8185330373
 H      4.0278964823     1.0462633459    -0.4784275944
 F      3.8518441832     0.3001744341    -0.9816630498
 H      0.6453549629    -0.4711956790    -2.7222154590
 F      0.2371646918    -1.1269336234    -3.2164597820
 H     -3.4407839721     1.5126369854    -4.5685800017
 F     -3.1247336604     2.3348702060    -4.3137590227
