          18
Energy: -70.58682792263254 Kcal/mole
 H     -4.2615599265     5.9629229719     2.5013211088
 F     -4.4707885619     5.5806645698     1.6944810428
 H     -2.7861860386     2.3341054747    -2.3266414792
 F     -2.4794467463     1.4725198459    -2.2597818441
 H     -3.1718361623     4.4088219355    -1.4954603238
 F     -3.4149187231     3.8660182456    -2.1934316863
 H     -3.0136476489     0.6932513750    -0.9060657038
 F     -3.3611767022     0.4422970132    -0.0954273964
 H     -3.7868859678     1.8064976647     0.6846012384
 F     -3.9976327324     2.6285418070     1.0320465280
 H     -3.3518394094     5.3962024871     0.4771192582
 F     -2.7360312547     5.3156576438    -0.1975523989
 H     -4.3167047030     5.6700802068     4.5385920802
 F     -3.9595971605     6.3622151748     4.0545338303
 H     -5.0078123206     2.6737469654     2.3568215721
 F     -5.5179900577     2.6569446704     3.1186124617
 H     -5.2351752936     3.6466885660     4.4230281478
 F     -5.0081710589     4.2577340760     5.0679943966
