          18
Energy: -70.60517089215784 Kcal/mole
 H     -4.3422220217     6.0176710033     2.5110757538
 F     -4.5293091567     5.6309641183     1.7009244167
 H     -2.5203881399     2.5210213892    -2.3275619769
 F     -2.2238478607     1.6566402360    -2.2514168203
 H     -3.0092867089     4.5783270713    -1.4979965153
 F     -3.1600300054     4.0453634067    -2.2288283638
 H     -2.9342614733     0.8317406526    -1.0105868230
 F     -3.3810608580     0.5505855991    -0.2607794173
 H     -3.8657543217     1.8813907805     0.5462292924
 F     -4.0873081118     2.6880219406     0.9219274287
 H     -3.3791759333     5.5160556789     0.5075702832
 F     -2.7297918311     5.4726848758    -0.1384237271
 H     -4.2096382357     5.6687303669     4.5498724364
 F     -4.0244883749     6.4221628785     4.0610493810
 H     -4.9458759655     2.6812946403     2.3487797832
 F     -5.3623901231     2.6371216319     3.1645332397
 H     -4.9028755875     3.5640723202     4.4633316658
 F     -4.5992517563     4.1538076882     5.0965091803
