          18
Energy: -70.59162382445693 Kcal/mole
 H     -4.3506051477     6.3764284973     2.3575329881
 F     -4.6289114494     5.9064172038     1.6209707121
 H     -2.8152092646     2.5929867823    -2.4255595220
 F     -2.4104571501     1.7764580345    -2.3238465443
 H     -3.4705112716     4.6582629969    -1.6839687920
 F     -3.6415321755     4.0302305018    -2.3298914155
 H     -2.9385248433     1.0356766977    -0.9499265015
 F     -3.2930757352     0.8024753563    -0.1370305676
 H     -3.7605112359     2.1623973538     0.6478805898
 F     -3.9859575397     2.9744670221     1.0092748592
 H     -3.6743995855     5.7742482928     0.2639539174
 F     -3.1340748199     5.7324554109    -0.4757700193
 H     -3.8703789108     6.2145297561     4.3653828795
 F     -3.8253928910     6.9374691761     3.8030450335
 H     -4.6255230814     2.9853189728     2.5435570724
 F     -4.9138186026     2.9625755283     3.4137624667
 H     -4.3738652707     4.0521230511     4.5403762513
 F     -4.0436739501     4.7247950023     5.0689357444
