          18
Energy: -70.60855826477714 Kcal/mole
 H     -4.3283685797     6.0171640613     2.5222563398
 F     -4.5097168914     5.6240386585     1.7138911949
 H     -2.5473278853     2.5112903207    -2.3418847003
 F     -2.2452686560     1.6481931512    -2.2732370637
 H     -3.0276492270     4.5646021471    -1.4952610982
 F     -3.1923069064     4.0314117228    -2.2229181741
 H     -2.9137287262     0.8320650102    -1.0029654515
 F     -3.3375063067     0.5545478997    -0.2385795440
 H     -3.8264538206     1.8830109220     0.5701064024
 F     -4.0551097088     2.6884031022     0.9442038775
 H     -3.3654463813     5.5042398439     0.5104866801
 F     -2.7240734732     5.4600833499    -0.1434093336
 H     -4.2668676444     5.6916139713     4.5647855532
 F     -4.0355545454     6.4322645058     4.0760933842
 H     -4.9407270653     2.6840738507     2.3542834349
 F     -5.3766101358     2.6399523714     3.1598566742
 H     -4.9960411351     3.5939777951     4.4666714961
 F     -4.7321535392     4.1944146815     5.1075520483
