          18
Energy: -70.48778426787976 Kcal/mole
 H     -1.8611078732     5.3364278514     1.9290492946
 F     -2.3312745129     4.7976348015     1.3549984430
 H     -6.5309873126     4.9526502080    -2.1980899332
 F     -7.1527122716     4.2789319863    -2.2193227646
 H     -4.5320174490     5.8840798899    -1.5858630079
 F     -5.3735965969     6.0956685433    -1.8822812588
 H     -7.4811581693     3.7252129055    -0.7002130465
 F     -7.4971158820     3.5186484513     0.1930760879
 H     -6.1430352663     4.1410170709     0.8662597359
 F     -5.3591547256     4.5288924640     1.1418916959
 H     -2.7832639915     5.1834059541    -0.2092077483
 F     -3.0114203389     5.4355690663    -1.0608223595
 H     -1.8757661769     6.2798810730     3.8109996363
 F     -1.2729208632     6.2993188154     3.1202835572
 H     -5.0096775966     4.4872419286     2.7740973172
 F     -4.8665420448     4.4945785120     3.6798276238
 H     -3.8142153656     5.4938407243     4.5014545773
 F     -3.1684232038     6.0537805537     4.8335823706
