          18
Energy: -70.43541714372233 Kcal/mole
 H     -6.1211649899    -0.0224171823     1.4547195819
 F     -5.7911298274     0.8300874712     1.5268417507
 H     -0.8877177312     2.9690754134     3.6659922276
 F     -0.0542741251     3.1691145507     3.3400396252
 H     -2.8013841184     1.8005794992     3.4656194640
 F     -2.4225457620     2.4281561625     4.0165441698
 H      0.2998237273     2.3764728845     1.9347355848
 F      0.3642221399     1.8227890604     1.2066036823
 H     -0.1164647294     0.3036611846     1.6188117534
 F     -0.4509886110    -0.4868870328     1.9413273169
 H     -4.2518146905     0.8172832450     2.0455261616
 F     -3.3937160394     0.7199896000     2.3538922614
 H     -5.6932804975    -2.1480618041     1.6371105224
 F     -6.4239035750    -1.6416729141     1.4120567272
 H     -1.6098147574    -1.3585412295     1.1331303541
 F     -2.2443926189    -1.8519965449     0.6918800970
 H     -3.4808982116    -2.5088814026     1.5620388730
 F     -4.2127849535    -2.8064094412     2.0275577914
