          18
Energy: -70.60593729023525 Kcal/mole
 H     -4.3685222415     6.0404572089     2.4952620211
 F     -4.5490966385     5.6435368374     1.6885798620
 H     -2.5151005922     2.5339666476    -2.3423100674
 F     -2.2222146499     1.6679788645    -2.2703935579
 H     -3.0040263265     4.5880352235    -1.4970514699
 F     -3.1510965995     4.0604827351    -2.2325429429
 H     -2.9367230075     0.8488167238    -1.0270894093
 F     -3.3851177878     0.5699448987    -0.2773817155
 H     -3.8751967418     1.8964198777     0.5328506082
 F     -4.0993072285     2.7011733761     0.9110506830
 H     -3.3874277435     5.5183892755     0.5067884474
 F     -2.7316121173     5.4721867433    -0.1324769049
 H     -4.2649597301     5.7158887530     4.5366044513
 F     -4.0643233924     6.4626730850     4.0437076858
 H     -4.9504461290     2.6921767424     2.3406105667
 F     -5.3642830844     2.6461148757     3.1576211412
 H     -4.9550535140     3.6010463312     4.4549200849
 F     -4.6789551556     4.2037474843     5.0884893523
