          10
Energy: -34.53337556072293 Kcal/mole
 H      3.8417335431     4.8247273191    -2.2785325085
 F      3.2357296192     5.4542926154    -2.0005113190
 H      5.9064264531     4.0264107033    -2.2414164336
 F      5.1111827303     3.7956821259    -2.6354224549
 H      3.9751495095     6.7488125023    -1.2527777103
 F      4.5073163036     7.3554073535    -0.8171974195
 H      6.9249999339     5.0736044813    -0.6580850305
 F      7.2109916960     4.6259693590    -1.4055611233
 H      5.5688915117     6.5084611576     0.1390006537
 F      6.1454525266     5.9177577858     0.5384201357
