          10
Energy: -33.28047986849657 Kcal/mole
 H     -0.7234502274    -4.7109046508     4.1963458840
 F     -1.0212686857    -4.0924889028     3.5882709475
 H     -1.2982560849    -5.6967978778     5.9988394176
 F     -0.4916743592    -5.7252100823     5.5635146350
 H     -1.2764628368    -2.7437016290     4.5970349963
 F     -1.4713086018    -2.1591535647     5.2761724555
 H     -3.3761261676    -4.7386855655     6.5918323661
 F     -2.8537283123    -5.4675277463     6.7836097272
 H     -2.9811500977    -2.6843904751     5.8429303698
 F     -3.6919670998    -3.1109129629     6.2349849028
          10
Energy: -33.37015578265925 Kcal/mole
 H      1.4828779592    -2.0616949511     3.3282887660
 F      1.4249717129    -2.3879841226     2.4732617236
 H      1.8348814445    -2.2950237578     5.3158463377
 F      1.6349244592    -1.5442095302     4.8288307325
 H      0.2591347771    -3.5311601503     2.7106998175
 F     -0.4096106950    -4.0947029407     2.9865403817
 H      1.4149312330    -4.2504557471     6.0321942002
 F      1.9277556124    -3.5588695077     6.3478025482
 H      0.0927514439    -5.0358203912     4.3530084604
 F      0.4775454021    -5.3266523087     5.1329055084
          10
Energy: -33.002571891176984 Kcal/mole
 H      4.5297119374    -4.3248175408     5.5433475989
 F      5.0072810141    -4.2456201703     4.7645378959
 H      2.5857178770    -4.6979638304     6.2947284471
 F      3.3034985779    -4.2970588690     6.7008750676
 H      4.3057198390    -3.1929651064     3.7003787563
 F      3.8587587336    -2.8220659501     2.9907671822
 H      1.2992306996    -4.6821640485     4.2690732132
 F      1.5236683239    -5.2647624827     4.9407098837
 H      2.1832901261    -3.4421014246     2.8279075935
 F      1.3014015195    -3.6602366044     2.9527215708
          10
Energy: -32.37913282940784 Kcal/mole
 H      1.5535983408    -3.5121063112     2.7055965611
 F      2.1116078634    -3.0319898700     2.1587852814
 H      0.7049105782    -4.1144491915     4.6670484377
 F      0.5478929495    -4.1947681737     3.7671688205
 H      1.9670264821    -1.3059381086     2.7789988533
 F      2.0271806988    -0.6772156801     3.4438135478
 H      2.0016254719    -3.1428684276     6.1754123254
 F      1.3855025372    -3.8178321345     6.2509472426
 H      2.8031849677    -1.2678283135     4.9105605430
 F      2.8807163085    -1.8063688702     5.6487014239
          10
Energy: -32.68114617270129 Kcal/mole
 H      1.7982566344    -3.0155438478     1.9857942556
 F      2.6211102149    -3.1543310558     1.6056112787
 H      1.0754838049    -2.2943175002     3.7376989556
 F      0.6194158085    -2.5477063687     2.9835868525
 H      3.9453354968    -2.5128794261     2.4284196915
 F      4.6520709742    -2.1923867344     2.9169873936
 H      2.7781597957    -1.5020620012     4.9281900302
 F      2.1013380402    -2.1207545164     4.9327598164
 H      4.4613534811    -1.0905326645     4.0573354713
 F      4.0770642901    -0.5740529953     4.7103741907
          10
Energy: -32.86987480637927 Kcal/mole
 H      3.1515128425    -3.4834796805     5.9668477768
 F      4.0015417340    -3.4974716539     5.6231268023
 H      1.4334819879    -2.6565463747     6.0721125119
 F      1.7484002441    -3.3216082555     6.6192945534
 H      3.9592301657    -4.1795087023     3.9968179529
 F      3.7231313350    -4.4395702194     3.1497557654
 H      1.3875117877    -1.7244847564     3.8753482008
 F      1.0658670228    -1.6400425868     4.7299259709
 H      2.6688194785    -3.2100561061     2.6042080230
 F      2.1240375023    -2.4988346437     2.4085919963
          10
Energy: -32.54620926994403 Kcal/mole
 H      5.7099580681    -1.0146203544     1.1546363651
 F      6.2389541814    -1.2366108656     0.4392537227
 H      4.4473846686    -1.5459236509     3.0219636454
 F      4.8442501505    -0.7716703143     2.7322766420
 H      6.1647060123    -3.0155313571     0.0657366915
 F      5.8639135792    -3.8747556276    -0.0444747653
 H      4.5764613907    -3.5112169992     3.1312712274
 F      3.9353377419    -2.9392486142     3.4517421833
 H      5.7818239282    -4.4336409725     1.5210748779
 F      5.7356315668    -4.4076733712     2.4365424903
          10
Energy: -33.042070632749386 Kcal/mole
 H      4.0209186136    -3.8103800630     0.7985997314
 F      4.6871575086    -3.3417642216     1.2198050590
 H      3.9225991133    -5.5738242248    -0.0310200670
 F      3.2356508201    -4.9705640546     0.0401712915
 H      6.0518490712    -3.6930889976     2.2813448063
 F      6.7437300908    -3.9829399112     2.8087688317
 H      6.1104692652    -6.4442065715     0.5842505144
 F      5.4238861580    -6.4436142149    -0.0236082570
 H      7.1946796071    -5.5231070670     2.1500950302
 F      7.2404300239    -6.3692936768     1.7997179179
          10
Energy: -33.42537466027696 Kcal/mole
 H      4.1725442178    -3.0602318834    -0.4259981050
 F      4.5486809404    -2.5058078417     0.2001202128
 H      4.2156137477    -4.8894266893    -1.4276533382
 F      3.6468015037    -4.1777292606    -1.5317129414
 H      4.3126451578    -3.3748727774     1.6190500652
 F      4.1630099964    -4.0416215638     2.2305599787
 H      5.6678360352    -6.2174359433    -0.3005408068
 F      5.4186758169    -6.1104730695    -1.1765357436
 H      5.3824529395    -5.2034868624     1.7395320111
 F      5.9007591854    -5.8710639794     1.3837393353
          10
Energy: -32.429102657126634 Kcal/mole
 H      4.1116093524    -3.1592099951     4.2199782120
 F      3.5300772872    -2.7698898885     4.8125483021
 H      4.3895846732    -5.0987726161     2.8699261678
 F      4.8927200951    -4.5846537062     3.4386312705
 H      2.5064716172    -4.1552220947     5.2198751134
 F      1.9593079736    -4.8781020724     5.3575177123
 H      2.2674568631    -6.0080472976     2.2265515674
 F      3.1374997938    -6.0048213711     1.9368898818
 H      1.1991747990    -5.3625235143     3.9298789291
 F      0.9122527042    -5.8203442320     3.1889572720
          10
Energy: -33.345801879025544 Kcal/mole
 H      2.4096316801    -3.0679628944     5.1757652321
 F      1.7554377889    -3.7032074505     5.0788956972
 H      4.5257110492    -2.5331180283     4.8669907773
 F      3.8133369670    -2.0984456839     5.2470856601
 H      1.9723304551    -4.5766930236     3.7353001113
 F      2.1971401858    -5.1149412269     3.0277420171
 H      5.1459039188    -4.0807694924     3.3122424382
 F      5.3981916297    -3.8328722610     4.1582843246
 H      3.6995744874    -4.9830910207     2.3223921868
 F      4.4968311093    -4.7519703264     1.9327075663
          10
Energy: -33.512802616478496 Kcal/mole
 H      5.4373295198    -0.3198263584     4.4089871487
 F      5.7765530023    -1.1702483036     4.4599669889
 H      4.7035166494     1.4626424217     3.4756280854
 F      4.9468513716     1.2259332804     4.3274766608
 H      6.0215037485    -2.0929982431     3.0261693653
 F      6.0539331752    -2.4793286393     2.1951542288
 H      4.6477333613     0.6020611972     1.2122511840
 F      4.6500827231     1.4029716339     1.6588225143
 H      5.0906394615    -1.6265925274     1.2030120201
 F      4.5774102027    -1.0453164839     0.7135195389
          10
Energy: -33.07154266808607 Kcal/mole
 H      0.7543525511     0.6658442881     1.3871050314
 F      0.5377736341     1.4056764271     1.8837245829
 H      0.4972549466    -0.6692366875    -0.2210354685
 F      0.9943312820    -0.7224915149     0.5477089885
 H     -0.7139979272     2.3018481829     1.0293097853
 F     -1.4853226062     2.6982427759     0.7312853461
 H     -1.3634631142    -0.0888438977    -1.2194060317
 F     -0.5750361355    -0.4939105632    -1.4543377149
 H     -2.3060930170     1.4290688150     0.0342328822
 F     -2.5343395747     0.6111981001    -0.3120040348
          10
Energy: -32.00326902465176 Kcal/mole
 H     -2.0876438110     0.3544176886     2.6579131427
 F     -1.9144169774    -0.0368830512     3.4689403896
 H     -1.4616286597     0.8713179351     0.4389379984
 F     -1.9291710836     1.1602596979     1.1729718802
 H     -0.3082443977    -0.6586808018     4.0063431751
 F      0.5701680437    -0.9211743650     3.9869083607
 H      0.1335514122    -0.4459311933    -0.1687649876
 F     -0.3600812257     0.2011138078    -0.5913150855
 H      0.8266836676    -1.1280891202     2.1730767110
 F      0.7935106551    -1.2215517770     1.2614554722
          10
Energy: -32.81118342684451 Kcal/mole
 H     -0.4913362810    -0.9757388513    -1.9161989831
 F      0.4234818416    -0.9174474029    -1.8917263538
 H     -2.1452584833    -1.8894409255    -1.0547576144
 F     -2.1247775534    -1.1932243884    -1.6512071639
 H      1.5762958547    -1.8736897275    -1.1589147367
 F      2.0257285502    -2.5140230463    -0.6805085358
 H     -1.0719732527    -2.8863497259     0.7615645336
 F     -1.9291642611    -2.8100667163     0.4448730790
 H      1.0415209431    -3.0771531094     0.5254673858
 F      0.4967173481    -3.1627042802     1.2581057960
          10
Energy: -32.955219966741225 Kcal/mole
 H     -0.0921703594     0.9105546680    -2.4036817828
 F     -0.2152575290     1.6558387785    -1.8837874250
 H     -0.1461996763    -1.1912831789    -2.9100798489
 F     -0.3299500742    -0.4349174574    -3.3948846412
 H     -1.6426702801     1.4337887296    -1.0229144692
 F     -2.3049342600     1.0256137001    -0.5374368012
 H     -0.6535189668    -2.3218863960    -1.3203250681
 F     -0.0103705782    -2.5149426852    -1.9448075894
 H     -1.7754173539    -0.5148309332    -0.0861857957
 F     -1.4164746781    -1.3586490744    -0.0906691079
          10
Energy: -33.20351543524029 Kcal/mole
 H     -1.7867276182     1.7489310731    -3.5040806089
 F     -2.0680702444     2.4681620967    -3.0096697863
 H     -1.5438417259    -0.4633359448    -3.7515291199
 F     -1.3154279849     0.3372692928    -4.1359083812
 H     -2.1226512380     1.6973636539    -1.5246151501
 F     -2.0937604045     1.1808858169    -0.7674461045
 H     -1.7872520609    -1.7303031985    -2.1044873312
 F     -2.1208770329    -1.7727352228    -2.9575892603
 H     -1.4392709490    -0.3871247673    -0.7427559283
 F     -1.1020566332    -1.2383393875    -0.7938360185
          10
Energy: -32.63439263540931 Kcal/mole
 H     -1.4319774195     3.6915372443    -2.3863559631
 F     -1.8511780058     4.4593659100    -2.1114032244
 H     -0.9307360221     1.8007702759    -1.7199431246
 F     -0.9339068427     2.0947579190    -2.5885340592
 H     -2.7468500434     4.5877325182    -0.3795574074
 F     -3.2619968296     4.5016837786     0.3741722544
 H     -1.9728081936     1.7304034278     0.2283817730
 F     -1.0785966980     1.7445153572     0.0257104763
 H     -3.6227480118     2.8049216468     0.6473602870
 F     -3.5957537402     1.8975103291     0.5178805214
          10
Energy: -33.09586750550628 Kcal/mole
 H      2.1135317086     1.8115982821    -0.7383811125
 F      2.9928927599     1.5598873771    -0.6731525785
 H      0.4836902903     2.4697485274     0.3779248290
 F      0.6496616290     2.5728625907    -0.5180160199
 H      3.9054497810     2.4532219271     0.5988822111
 F      4.3112300752     2.8466004691     1.3210211697
 H      1.1267200140     2.8013320628     2.3552970995
 F      0.4698764068     2.2648895603     2.0064777808
 H      3.2415425912     3.1647024100     2.6239688989
 F      2.5054974251     3.5027351252     3.0539228463
          10
Energy: -32.94092148854958 Kcal/mole
 H      0.7886724045    -0.7656569144     0.9429467029
 F      1.2750920229    -1.4723993617     1.2666750891
 H     -0.0356057406     1.3780115142     1.0897223494
 F      0.1426480698     0.7814440570     0.4165048154
 H      2.6765470933    -0.8334295582     2.0700120099
 F      3.2911994020    -0.3814943005     2.5787811740
 H      0.6447662140     2.1237423117     2.9494664179
 F     -0.2030944960     2.0962497479     2.6012346339
 H      2.6556645562     1.0278850949     3.3192490902
 F      2.3702221480     1.8526207971     3.6007142800
          10
Energy: -32.401130205340166 Kcal/mole
 H      1.7424174235    -2.8309606489     1.0285832650
 F      2.3918451248    -2.3403011107     1.4509407894
 H     -0.4371701162    -2.7750185157     0.5957491170
 F      0.2874696372    -3.0705010482     0.1177571707
 H      1.6417463313    -0.9409572430     1.6444411371
 F      1.1962134736    -0.1422641330     1.5775173839
 H     -1.6775296801    -1.1154311828     1.8139189831
 F     -1.6867493871    -1.9613614368     1.4600743811
 H     -0.3718285024     0.4392975965     2.3170721110
 F     -1.2427526148     0.3786915668     2.5976199673
          10
Energy: -33.84488204794653 Kcal/mole
 H      3.3596935851    -0.2213737402     1.0141304679
 F      3.4983871467    -0.2964221542     0.1107917542
 H      2.9928649025     1.0766615325     2.7043904514
 F      3.0653322223     0.1680981456     2.6036429474
 H      2.8751926151     0.9182318509    -0.9162866324
 F      2.4472440241     1.5780531076    -1.3878636809
 H      2.9156312486     3.1615958789     1.8582886041
 F      2.8205908638     2.7619779618     2.6781433751
 H      2.5461720637     2.9433218575    -0.4223498074
 F      2.7551243700     3.5763004762     0.2073850589
          10
Energy: -32.94430427843497 Kcal/mole
 H     -3.1372106916     1.7405985378     1.4140381123
 F     -3.0080551138     1.1989057600     0.6854938301
 H     -2.4219611258     3.0741098539     3.1064749063
 F     -3.1861010285     2.5964453972     2.9367225105
 H     -1.3961362234     0.4690456685     0.6873252023
 F     -0.5487163319     0.3004187652     0.9944627857
 H     -0.3432812520     3.6364314322     2.7053493451
 F     -0.9865223151     4.0658918846     3.1979888223
 H      0.2937428707     1.6437780562     1.5581570040
 F      0.5308141679     2.5189747523     1.6949668834
          10
Energy: -33.682702586783535 Kcal/mole
 H     -1.4234001472     3.0501564327     0.0450977380
 F     -1.1135993895     2.2271693774    -0.2149114877
 H     -1.1532960246     4.6857769917     1.5496121344
 F     -1.3242662799     4.6541223813     0.6492476763
 H      0.5467705922     2.4397544018    -0.2154632054
 F      1.4436191402     2.5987651094    -0.1093157761
 H      0.3965563970     4.4365107971     2.8711772335
 F     -0.4863471981     4.6057765865     3.0520620983
 H      1.7862966478     3.3928615906     1.2666193129
 F      1.8239509084     3.9218894742     2.0146839190
          10
Energy: -33.89858825808753 Kcal/mole
 H     -0.7765629417     5.8921072841    -0.8946857959
 F     -0.0837744013     6.4568768241    -1.0995477127
 H     -1.3057989028     3.9307749373    -0.1503515990
 F     -1.7727047274     4.6382992751    -0.5000618539
 H      1.4563847164     5.9097387540    -0.6587534986
 F      2.2499531192     5.6912190945    -0.2545414894
 H      0.4769976740     3.3771336659     1.0891209076
 F     -0.0824589363     2.9488577382     0.5021992510
 H      1.8553750238     4.9926764611     1.2284347180
 F      1.4492624044     4.4691934994     1.8624119488
          10
Energy: -33.62654875221429 Kcal/mole
 H      0.4356378676     2.9835670755     1.6739011092
 F      0.9590454199     3.5525570602     2.1670379375
 H     -0.3642351399     2.6774725581    -0.1487247546
 F     -0.3789271008     2.1323913634     0.5885402164
 H      2.5757665490     3.3804376807     1.8138002561
 F      3.3532288564     3.2748408480     1.3391523135
 H      0.9320954303     3.5837228594    -1.5652744590
 F      0.0158758015     3.6133521536    -1.5417649572
 H      2.8870437061     3.4998100329    -0.2649089433
 F      2.5687847587     3.4669520630    -1.1242811538
          10
Energy: -33.4668917238576 Kcal/mole
 H      0.9386548925     3.6498346663     2.5712332937
 F      1.6883450917     3.4676101439     3.0668620144
 H     -0.0116465097     4.8000330750     1.0340784886
 F     -0.2974749512     4.1310597326     1.5923488256
 H      2.9567128549     4.5770198701     3.1989457709
 F      3.5735223447     5.2526251319     3.1357588776
 H      1.8156759480     5.8675785869     0.1155857213
 F      0.8991946202     5.8371090763     0.1108333716
 H      3.6403640933     5.6056328311     1.4039681319
 F      3.4384817694     5.5232672343     0.5132670397
          10
Energy: -32.97837382578902 Kcal/mole
 H     -0.5417265931     3.4870390209     0.2404390328
 F     -0.4636527068     2.9069904033     0.9463689652
 H      0.5060377135     5.3206140825    -0.9265060459
 F     -0.2451468776     4.8032453340    -0.8319529486
 H      1.0804302352     2.5930495330     1.4148300017
 F      1.9454323830     2.7324577521     1.6854323535
 H      2.5785396984     5.4458699281    -0.7421774605
 F      1.9597337998     6.0788224723    -0.9816337959
 H      2.7542698926     3.4483329826     0.3881658051
 F      3.2222505889     3.9014955327    -0.2572230474
          10
Energy: -33.69316862761704 Kcal/mole
 H      1.4540061857     5.6862510874     2.4362484070
 F      1.6185758711     4.8259806534     2.7078006102
 H      1.2658414006     7.1878945401     0.8550745217
 F      1.2941865695     7.1899787122     1.7716339620
 H      2.6601919168     4.2400355519     1.4948606388
 F      3.2243939198     4.0036558071     0.8117137175
 H      2.2890487397     6.5347196358    -1.0878683529
 F      1.4618346476     6.8740183052    -0.8841964139
 H      3.5752422322     4.9104952198    -0.6569301792
 F      3.6408937376     5.5722074923    -1.2883696048
          10
Energy: -33.00037593029225 Kcal/mole
 H      2.8494630840     3.6904802820     4.1785831353
 F      3.4921612548     3.2791963023     4.6871827315
 H      1.7721094979     3.3586611770     2.5988571581
 F      1.9264072952     4.2079897915     2.9082470324
 H      4.8827038098     2.5426419545     3.9244529919
 F      5.5369332456     2.1086408001     3.4506219638
 H      2.3710389489     1.3366811596     1.7632013271
 F      1.6143550025     1.8292903977     1.9233716853
 H      4.7332603694     1.1631977726     2.1514029273
 F      4.0791647362     0.8380305590     1.5970436704
          10
Energy: -32.86017130829967 Kcal/mole
 H      5.7447067258     4.6571703864     3.1601693495
 F      6.4349070216     4.2372614367     3.5939769401
 H      3.9182428717     4.7477064486     1.9947124503
 F      4.5029677171     5.3872425396     2.2946781876
 H      6.1555791150     2.6313679903     3.6015542003
 F      6.1228368442     1.7299169792     3.4366208254
 H      3.4886992016     2.6111161787     1.6213301596
 F      3.0775575887     3.4002901763     1.3998443231
 H      4.7980673128     1.1537911280     2.5915968302
 F      4.0383901473     1.1579510022     2.0780188909
          10
Energy: -34.02081464565552 Kcal/mole
 H      6.8869939449     5.9465288599     3.2396149421
 F      6.7415581067     5.8611635712     4.1409751278
 H      6.5056730025     5.2371984200     1.1226465736
 F      7.0091456199     5.8684054127     1.5573672378
 H      6.6671753025     4.3020551994     4.7470741505
 F      6.6163570150     3.3975876079     4.8893586459
 H      5.7638001224     3.2168205859     1.2952238486
 F      5.6738394209     3.8386438403     0.6272927800
 H      6.1119171997     2.7046093194     3.5037910466
 F      5.9281505600     2.3027268876     2.7002928616
          10
Energy: -33.010190564781226 Kcal/mole
 H      5.3886729959     6.5901702066     4.2232498393
 F      5.0992753621     6.1102826993     4.9490914129
 H      5.8257865213     6.4672242639     1.7641221485
 F      5.6887555559     7.0990933899     2.4143935705
 H      5.0286029087     4.4625023329     4.6457855523
 F      5.1152749508     3.5648932724     4.4794277104
 H      6.0928805652     4.3666384342     1.0984712469
 F      6.2832026407     5.1809502032     0.7222228577
 H      5.3954830588     3.2172983947     2.8721735491
 F      5.4626697879     3.0565937474     1.9718686231
          10
Energy: -33.87426922065433 Kcal/mole
 H      3.7335162218     7.2934248123     2.7146997992
 F      3.0918295398     7.1468266024     3.3531637113
 H      5.0079361566     6.6591143005     0.9960782687
 F      4.7848853917     7.4655295628     1.3713538755
 H      2.2297707082     5.7063689533     3.0731162455
 F      1.9132172061     4.8669515147     2.8832182622
 H      4.3640866561     4.7144474522     0.3431795583
 F      5.1883359630     5.1163195617     0.3422373519
 H      2.5302026103     4.4373859723     1.4272218744
 F      2.7882161563     4.2738587270     0.5625966087
          10
Energy: -33.78229156964787 Kcal/mole
 H      5.0154812770     6.9603226120     3.0889932076
 F      4.3199264761     6.9345464066     3.6860092093
 H      5.5233258056     6.3575331426     1.0193919867
 F      5.9829063552     6.8345831228     1.6535039916
 H      2.6975832785     6.2412590691     3.5161571569
 F      1.9164034479     5.8462158865     3.2430491999
 H      3.6987536434     5.0274810864     0.3939779633
 F      4.4068878159     5.5048698833     0.0600095062
 H      2.3066199333     4.7644114030     2.0349925661
 F      2.5836317600     4.2398398695     1.3357228369
          10
Energy: -34.13462854116045 Kcal/mole
 H      5.5098089121     6.1015126836     1.9770934245
 F      5.0528316732     6.6968983490     2.5039489195
 H      5.2860820301     4.7283816112     0.3235418587
 F      5.9847425201     4.8382758311     0.9072248036
 H      3.5838162643     6.0476837126     2.9348483950
 F      2.8664631948     5.4941944658     3.0760688872
 H      3.2672261359     4.1148684168     0.1233985843
 F      3.8520907430     4.4948094721    -0.4719728845
 H      2.4079976267     4.2277647826     2.0541395291
 F      2.2669413032     3.6137983363     1.3877782785
          10
Energy: -33.746634393780994 Kcal/mole
 H      6.0605308659     4.9955791995     1.7075939861
 F      5.5863946331     4.4209643844     2.2422917017
 H      6.1140074887     6.3671363198     0.0024740378
 F      6.7261427862     6.0254793028     0.5936168804
 H      3.9469686228     5.0409170158     2.3080196547
 F      3.1507023219     5.4938360008     2.2666267687
 H      3.8980110935     6.3216831281    -0.7146352434
 F      4.7101203755     6.6759603197    -0.9509722604
 H      2.6013316061     5.5809639675     0.7671349787
 F      2.5336989910     5.6094373924    -0.1469241515
          10
Energy: -33.473380744423764 Kcal/mole
 H      4.7387980914     5.4224664892     2.9123377939
 F      4.1211867942     4.8829537752     3.3226685349
 H      5.1300725073     6.8306414349     1.1823904652
 F      5.6522957497     6.3343206161     1.7496977277
 H      3.1725752344     4.2637764229     2.1591229159
 F      2.7123401684     3.9927507631     1.4137251860
 H      3.2463724056     7.0004125640    -0.0033860309
 F      4.0720054755     7.3989794504    -0.0224509439
 H      1.9373140714     5.2514409249     0.6030116623
 F      1.7902048710     5.9908984746     0.0810438326
          10
Energy: -33.413586106531085 Kcal/mole
 H      5.6981316528     3.4660565171     2.2365978467
 F      5.2583276281     2.6880717520     2.4420269712
 H      5.7749960072     5.2187701094     1.1881194124
 F      6.2927325071     4.8870727560     1.8684243311
 H      3.9738006867     2.1805934643     1.4964174056
 F      3.3438002159     1.9734371497     0.8631128438
 H      4.3427820890     4.7605453333    -0.7401081693
 F      4.6662035583     5.3669208349    -0.1329868434
 H      3.5832498347     2.7072859245    -0.5654815070
 F      3.7404712561     3.2441322883    -1.2920944757
          10
Energy: -33.73897731593439 Kcal/mole
 H      6.4903030236     2.6483258253     0.8639496094
 F      6.9721187415     2.2072820878     0.2203479969
 H      4.8603169191     4.0877345647     1.2848905169
 F      5.3324684239     3.5317899686     1.8406670571
 H      5.6911042290     1.8036539956    -0.7507970442
 F      4.9653688356     1.5608617605    -1.2560188463
 H      3.4708098872     4.2043473272    -0.2554470876
 F      4.0740088057     4.8277497329     0.0418902721
 H      3.4078286362     2.2938690468    -0.9794323768
 F      2.7064330965     2.8131818343    -0.6979230065
          10
Energy: -33.99639113932699 Kcal/mole
 H      6.5621193789     2.2366954223     0.4489651019
 F      6.8171721788     1.6232976221    -0.1831584683
 H      5.1742138342     3.6260665569     0.9660664722
 F      5.9627278636     3.4393383547     1.3953300323
 H      5.4949541103     0.8206409569    -0.9478291388
 F      4.7030396069     0.4858317543    -1.2666758375
 H      3.3270561516     2.9833968235     0.1816055809
 F      3.7638287226     3.7875790169     0.1232127636
 H      3.4381764221     0.9659393383    -0.3375788754
 F      2.9371142337     1.3668995522     0.3174452387
          10
Energy: -34.07213181357395 Kcal/mole
 H      6.5238094633     3.1124530906     0.0809491081
 F      6.7028202121     2.6350897739    -0.6812637333
 H      5.3946006353     3.4892820160     1.9271240449
 F      5.9604425705     4.0198974649     1.4380850385
 H      5.5408376941     1.6364963639    -1.3563666355
 F      4.7842177499     1.1747568172    -1.5913386576
 H      3.7594367725     2.0652158950     1.6600499000
 F      4.3300752920     2.2128465371     2.3625211618
 H      3.5428199239     1.6286656317    -0.5229824081
 F      2.9931653518     1.9420070062     0.1407841431
          10
Energy: -34.10649406316108 Kcal/mole
 H      6.4244393553     2.8616772508    -0.2508765580
 F      6.4883727025     2.7966786326    -1.1633329716
 H      5.1964490727     2.7509120023     1.5234482565
 F      6.0901230082     2.8662831820     1.3533736028
 H      5.4108062504     1.7539863861    -1.7067959704
 F      4.7042802510     1.1946946846    -1.8768042198
 H      3.1292256231     2.3376287040     0.7957918780
 F      3.5134892006     2.3549755500     1.6282158025
 H      3.2396601485     1.8822594676    -1.2873108265
 F      2.6311009588     2.3377555366    -0.7744092338
          10
Energy: -34.11466266180432 Kcal/mole
 H      6.4547269915     2.3965821315    -0.4303287844
 F      6.5643196213     1.8775836381    -1.1783388240
 H      5.1014849896     3.8648895570     0.7234449964
 F      5.8825939922     3.4148074848     0.8913254727
 H      5.8435704429     2.5440623386    -2.5139902293
 F      5.3724077955     3.0081221491    -3.1492407719
 H      3.3606487381     4.3016200897    -0.5584035141
 F      3.6958677570     4.5893659436     0.2451632429
 H      3.8186619776     3.3050237650    -2.5652553105
 F      3.0845509653     3.4852994050    -2.0461496225
          10
Energy: -34.09907047875819 Kcal/mole
 H      4.9408263460     1.9380805386    -0.3994704879
 F      4.9860760685     1.3142002106    -1.0700037078
 H      4.1475371887     3.8335671213     0.2534181784
 F      4.8270027195     3.2730707652     0.5084856740
 H      5.2758091820     2.0703791416    -2.4837041159
 F      5.3504921205     2.6506519636    -3.1898166499
 H      2.9914310412     4.5253159332    -1.3956042339
 F      2.8792371522     4.6801306601    -0.4987575739
 H      4.1185177173     3.6853941232    -3.1209553045
 F      3.4065840545     4.2434791312    -2.9706869326
          10
Energy: -33.977976207352356 Kcal/mole
 H      4.8139237328     2.2639451883    -0.0949086188
 F      4.9158178660     1.8153163514    -0.8881543262
 H      4.2092986374     4.1267108035     0.8039488853
 F      4.4325452324     3.3101390633     1.1564549858
 H      5.8564182446     2.7165909017    -1.8929540768
 F      6.1902295279     3.3643829581    -2.4495728681
 H      3.9628387195     5.2794501522    -1.0432514323
 F      3.9489650495     5.4919902569    -0.1513303454
 H      4.9211573278     4.3912952483    -2.7005282452
 F      4.1811238628     4.9327906469    -2.6958161277
          10
Energy: -34.207441300875615 Kcal/mole
 H      4.7307730579     1.4890704896    -0.2092813146
 F      5.4489145552     1.1997047526    -0.7006358304
 H      3.3198899321     3.0877280231     0.5894281567
 F      3.3825043550     2.1740732638     0.5424876112
 H      5.6903628094     2.1266212482    -2.0827083933
 F      5.6961831837     2.7571862846    -2.7484732603
 H      3.8216133890     4.8844987873    -0.3983169940
 F      3.4162431109     4.7632740104     0.4152360105
 H      5.0100564567     4.1657297093    -2.2690378298
 F      4.5488704324     4.8825291277    -1.9308144645
          10
Energy: -34.2028629454048 Kcal/mole
 H      5.0486529934     1.6756842815    -0.0010834328
 F      5.9120006084     1.6870736846    -0.3099364354
 H      3.5588554903     2.8635721021     0.7049245794
 F      3.5486927270     1.9533480028     0.5941193123
 H      6.1037013345     2.5582739352    -1.7701027807
 F      6.0416140980     3.1130150208    -2.4976304454
 H      4.0748047163     4.7920477484    -0.2490436077
 F      3.7791273767     4.4971903801     0.5673650174
 H      5.0868295644     4.3943708232    -2.1460498017
 F      4.5470100366     5.0580015589    -1.8157800270
          10
Energy: -34.39526735985794 Kcal/mole
 H      5.0975520182     1.8944007475    -0.0166596689
 F      5.9880189021     1.9566989281    -0.2266041031
 H      3.3699918265     2.9246804496     0.2483005580
 F      3.4871179229     2.0221553669     0.1359664466
 H      6.1489754756     2.7966135186    -1.6546583556
 F      6.1279431643     3.3254354443    -2.4035201671
 H      3.8015875818     4.9430772460    -0.4584071507
 F      3.4308931595     4.5700628578     0.2928151275
 H      5.1912135262     4.6942201226    -2.1126841633
 F      4.5961289545     5.3492036312    -1.8723511527
          10
Energy: -34.28928829060226 Kcal/mole
 H      4.7375150357     1.9595833142    -0.1757125169
 F      5.6229304094     1.9175090072    -0.4105707056
 H      2.7855168330     3.0167191805    -0.2050649210
 F      3.1262950292     2.2224101280     0.1012557445
 H      6.0867826922     2.9276637852    -1.6122434327
 F      6.2418463615     3.5834805559    -2.2341345981
 H      3.3002492735     4.9723636414    -1.0364805956
 F      2.5220078545     4.5439167536    -0.8091866052
 H      5.3833322037     4.9004138005    -1.7190127590
 F      4.7986954473     5.5524488779    -1.4470952697
          10
Energy: -34.32800785458454 Kcal/mole
 H      5.0110888172     2.4622919296     0.1416679391
 F      5.9091251296     2.6177084539     0.0403492069
 H      2.9942208416     3.0827819850    -0.1884558352
 F      3.3805462959     2.2918868328     0.0686949018
 H      6.1415365925     3.1729748128    -1.4959107811
 F      6.0931006791     3.5519611943    -2.3295247714
 H      3.3459763029     5.0819797252    -1.1689823443
 F      2.6277564167     4.6310092518    -0.8201631547
 H      5.2717093288     5.0316265449    -2.0672181089
 F      4.7500234020     5.7280220548    -1.7777943924
          10
Energy: -34.366571526058266 Kcal/mole
 H      4.9962376984     2.3832197435     0.2213486479
 F      5.8983617700     2.4890732062     0.0954272281
 H      2.9280904512     2.9995618043    -0.1986098899
 F      3.3206225754     2.3088874152     0.2594036685
 H      6.2056602771     3.2059297911    -1.4004247132
 F      6.1620933231     3.6868266361    -2.1799945593
 H      3.2303622004     4.8872241700    -1.4230870004
 F      2.5370109255     4.3223587236    -1.2204048920
 H      5.2146791936     5.0168275993    -1.9719178220
 F      4.6158407771     5.6740272249    -1.7474847516
          10
Energy: -34.36937183952779 Kcal/mole
 H      4.9555841881     2.3040819969     0.0556915693
 F      5.8626960634     2.3953512974    -0.0428323382
 H      2.8604541710     2.9812314530    -0.1743898124
 F      3.3012402264     2.2424961197     0.1432054659
 H      6.1856342377     3.2672901886    -1.4063972980
 F      6.1962450133     3.8217464009    -2.1367086837
 H      3.0832689369     4.9395016558    -1.2388617004
 F      2.3955099792     4.4154483663    -0.9335016407
 H      5.1244628330     5.0514572282    -1.8965250287
 F      4.4957033450     5.6861392325    -1.6898144589
          10
Energy: -34.502114904647186 Kcal/mole
 H      4.9678990037     2.2081431728     0.0399607239
 F      5.8696386716     2.3018069585    -0.0978132457
 H      2.9055271318     2.9814971920    -0.2296850516
 F      3.2932218856     2.2176197847     0.0975351868
 H      6.1622090074     3.2363075825    -1.4292515407
 F      6.1674058620     3.8279677949    -2.1298228688
 H      3.1234023187     4.9767695365    -1.1035634099
 F      2.4167690791     4.4355598485    -0.8829947395
 H      5.1949288747     5.1251097927    -1.7692134491
 F      4.5609168279     5.7256826485    -1.4895172400
          10
Energy: -34.52376255445253 Kcal/mole
 H      4.9625101343     2.2112675836     0.0404892525
 F      5.8650566257     2.3261656786    -0.0739540019
 H      2.9036888542     2.9831153120    -0.2236615945
 F      3.2933194020     2.2175339471     0.0972156563
 H      6.1572512287     3.2507098437    -1.4174048813
 F      6.1676688607     3.8272037883    -2.1304513067
 H      3.1238366024     4.9717153921    -1.1142399313
 F      2.4167460414     4.4358279592    -0.8824283747
 H      5.1869012207     5.1197318110    -1.7756098811
 F      4.5613426764     5.7259679380    -1.4891779240
