          10
Energy: -34.52997007080941 Kcal/mole
 H      5.1483507142     5.4127045231    -2.7152457735
 F      4.3099016724     5.7037856081    -2.4846725609
 H      7.0494410639     4.6873529460    -2.0343304604
 F      6.7471878809     4.9619643218    -2.8553789398
 H      4.3789708703     6.7620165454    -1.2075432597
 F      4.5419385044     7.2898784287    -0.4756331680
 H      7.2348397858     5.1770436948     0.0224249006
 F      7.3827150968     4.3976805667    -0.4375914109
 H      5.9775750698     6.9448813185     0.2997557744
 F      6.7845705113     6.6608927421     0.6299039923
