          10
Energy: -34.488335756253036 Kcal/mole
 H      0.3084988267    -1.2478527790     5.1528428003
 F      0.6227038180    -0.8119835940     4.4097531174
 H     -0.5008958847    -3.0313791029     5.9129693336
 F     -0.3926434596    -2.2089782835     6.3039006634
 H     -0.4692666960    -0.7887204028     3.1503215915
 F     -1.1177690213    -0.9239765522     2.5162557368
 H     -1.1797833924    -4.0774310939     4.1725608853
 F     -0.7090209185    -4.3515170265     4.9102251685
 H     -1.7063745458    -2.4622587633     2.6958911773
 F     -1.9648598670    -3.3162974454     2.9072966366
