          10
Energy: -34.534825822348864 Kcal/mole
 H      3.8416335724     4.8465841834    -2.2255532894
 F      3.2377257458     5.4608285023    -1.9110882616
 H      5.9030352835     4.0524499979    -2.2278693656
 F      5.1139169674     3.8487949898    -2.6482333992
 H      4.0053250033     6.7688880669    -1.2226093998
 F      4.5552640544     7.3819000102    -0.8192827364
 H      6.9288743785     5.0736758231    -0.6050996489
 F      7.2042548544     4.6049425994    -1.3435735878
 H      5.6056410872     6.5510887797     0.1630357659
 F      6.1752205737     5.9641417058     0.5777179826
