          10
Energy: -34.5321767298764 Kcal/mole
 H      3.8996405305     4.8500736408    -2.4359772934
 F      3.3276474356     5.5498280470    -2.2808751645
 H      5.8958670502     3.9464510773    -2.1697603417
 F      5.1041888385     3.6879363246    -2.5535633271
 H      4.0365040253     6.7758007136    -1.3978544481
 F      4.5367909674     7.3445933271    -0.8810595773
 H      6.8634587630     5.0395730817    -0.6027894578
 F      7.1796608799     4.6182281268    -1.3533716653
 H      5.4919678872     6.4541167170     0.1470416906
 F      6.0229456345     5.8430642090     0.5778159522
