          10
Energy: -34.533443685653936 Kcal/mole
 H      3.8524729582     4.8452742528    -2.2310203822
 F      3.2475951968     5.4666711873    -1.9328966770
 H      5.9162403940     4.0527312868    -2.2253568883
 F      5.1212249790     3.8347736200    -2.6270208592
 H      4.0002067602     6.7764200944    -1.2254945884
 F      4.5419755921     7.3892096936    -0.8109292259
 H      6.9441265491     5.0890166099    -0.6283242189
 F      7.2269670723     4.6315964754    -1.3710604164
 H      5.5959729666     6.5459448533     0.1545051106
 F      6.1663107292     5.9538486060     0.5607388740
