          10
Energy: -1.8378146254716512 Kcal/mole
 H     -3.8140172709    -0.1259181113     0.5612428058
 F     -3.9946705689     0.7731110239     0.5612428058
 H     -0.2439912359     4.9495751616     2.3622778555
 F     -0.7065035745     4.1577599453     2.3622778555
 H      3.4247994831     2.7106973085    -0.4181933011
 F      4.3417994831     2.7106973085    -0.4181933011
 H     -4.6598897865    -3.3897014846    -3.2508008095
 F     -3.7762203628    -3.1447170982    -3.2508008095
 H      1.1439057276     3.9869916729    -2.8567586396
 F      1.0414807987     3.9869916729    -1.9454968035
