          10
Energy: -26.696263496157258 Kcal/mole
 H     -0.6258004034     4.7397075887     4.2699030033
 F     -0.9583898511     5.3098759416     3.6333644666
 H      0.3070374220     5.4548977842     1.9608047910
 F      0.7215133543     5.5675657479     1.1506167687
 H      2.2815165993     5.0485861605     1.3650030793
 F      2.9619739413     4.4590255480     1.5390291981
 H      2.7631042215     3.6754246751     3.1139722036
 F      2.4759547593     3.3706148084     3.9297694404
 H      0.7245655018     2.8729083801     5.0109689127
 F     -0.1359185053     3.0221055419     4.7313325766
          10
Energy: -27.40279401417314 Kcal/mole
 H     -2.4966009657    -1.1653057839     2.9621525648
 F     -2.3398528344    -1.1664943149     3.8656555315
 H     -1.6405276866     0.2817121171     3.8887454441
 F     -1.0922264721     1.0123958060     3.9684707539
 H      0.0675413541     1.5078493962     2.9187208718
 F      0.6474543954     1.6260958730     2.2182869810
 H     -1.0330937547     1.9784744354     0.9913718877
 F     -1.9189617269     2.1819022033     0.8699466882
 H     -3.1279308528     0.5756795144     1.1656989601
 F     -3.0059535049    -0.2703684759     1.4976828825
          10
Energy: -30.364250825342936 Kcal/mole
 H      3.8791045683     4.8102376293     0.6951557850
 F      3.2120128508     4.4182867153     0.2029646417
 H      2.5246171099     3.3759503313     1.2521889324
 F      2.0963386686     2.7213025954     1.7306269311
 H      2.3764909841     3.1129445277     3.5762765990
 F      2.5731834614     2.9608056279     4.4589174232
 H      3.4255229157     4.3223854161     4.7388274457
 F      3.9359887206     5.0726657601     4.6069446666
 H      4.6941490901     4.9351573216     3.1057678826
 F      4.9300064108     4.6819153117     2.2565748488
          10
Energy: -30.2021362640819 Kcal/mole
 H      3.0014364869     5.9964691587     3.2686669533
 F      2.3388387415     5.5678990300     2.8015685990
 H      2.0077808894     4.2657721620     4.0834809566
 F      2.0015161712     3.6474989955     4.7606722478
 H      3.1281298861     3.3229104318     6.2189426669
 F      3.7994921515     3.4058313512     6.8380434905
 H      4.8084444591     6.2802684115     4.1407795961
 F      4.2374573161     6.9033885388     3.7849931580
 H      4.8170385953     4.3841577380     5.5998970684
 F      5.1935495969     4.7761116485     4.8613169456
          10
Energy: -29.840964537331388 Kcal/mole
 H     -4.3715416837     1.0918353173     5.1127175391
 F     -5.0629801626     1.6260511586     4.8344815514
 H     -5.4667559988     1.7026910809     3.2351080391
 F     -5.4508831204     1.5228100683     2.3360641730
 H     -5.1135462454    -0.0611366185     1.7934563665
 F     -5.2453329544    -0.9665918137     1.8540546577
 H     -3.0385454597    -0.7939319991     4.7445345592
 F     -3.0787965205    -0.3170310330     5.5267329488
 H     -3.9385710532    -1.3938594582     2.5387778851
 F     -3.2403372457    -1.4615359131     3.1293525607
          10
Energy: -28.616927025310872 Kcal/mole
 H     -0.4641608671     5.9959692749     6.0908498507
 F     -0.2896548836     6.8779604937     5.9104942250
 H     -1.6409555954     7.2798417022     4.5890019615
 F     -2.4929094743     7.1477214340     4.2765794545
 H     -3.2066278835     6.1657376439     5.4548072473
 F     -3.7271922823     5.5385455130     5.8749640487
 H     -1.0665882810     3.7844148932     6.2077756157
 F     -0.4595339387     4.3371231448     5.7992568105
 H     -3.1799444719     4.3027144841     6.7593192393
 F     -2.6999266112     3.5347820304     6.9033733954
          10
Energy: -29.21783023995303 Kcal/mole
 H     -2.8494288706     4.7443291366     3.8902482796
 F     -2.9949572871     4.7150417538     2.9853434618
 H     -3.4647247167     6.5816621844     2.5036999310
 F     -3.8472101435     7.3886083012     2.7121030569
 H     -5.3873756016     6.8453488141     3.4886123533
 F     -6.1413346354     6.3453291769     3.6383292123
 H     -3.6511132265     4.6151497620     5.7356043479
 F     -2.8037177945     4.9267895962     5.5753214865
 H     -5.4940690445     4.5501520383     4.3735504779
 F     -5.2604484991     4.0240410464     5.0873555388
          10
Energy: -27.685085541554514 Kcal/mole
 H     -3.6777291110     1.9238817332     4.6229402275
 F     -3.1882434762     2.3863216478     5.2453887304
 H     -4.3326965398    -0.4384075318     4.8706429948
 F     -4.2693661940     0.2849460595     4.3106092018
 H     -1.6235315844     1.3623874464     5.8135692563
 F     -0.9674527208     0.7218134080     5.8242662687
 H     -3.8406463084    -1.9525979384     6.1687544705
 F     -4.6714861724    -1.6405903254     5.9380048881
 H     -1.8006979566    -0.9099803032     5.6111343230
 F     -2.2066168553    -1.7149938716     5.4435873072
          10
Energy: -29.49334806101652 Kcal/mole
 H     -4.7012715972    -2.6137903942     0.6337457532
 F     -4.3780443546    -1.8683495563     1.0588705666
 H     -4.7859818653    -3.5006327117    -1.7430890713
 F     -4.9687579605    -3.6606962035    -0.8588597019
 H     -2.8687732587    -1.9300308947     0.5454814901
 F     -1.9940645756    -1.9906808263     0.2769758001
 H     -3.4294522622    -3.7516564516    -3.4754778354
 F     -4.3426279871    -3.7610135492    -3.3923421619
 H     -1.9284281224    -2.9992964065    -0.9893839175
 F     -2.0275959613    -3.5543190200    -1.7125745136
          10
Energy: -31.269612037706366 Kcal/mole
 H      3.7982277490    -6.3676468159    -5.4135643723
 F      3.4629639721    -6.0213567870    -6.1936736056
 H      3.2373093299    -7.0293112281    -3.2343962291
 F      3.8998829963    -7.0857945874    -3.8658190405
 H      2.3009542381    -4.8541475528    -5.7993351661
 F      1.8806486584    -4.2526355680    -5.2494119426
 H      1.2284834665    -6.4026495487    -3.0715962057
 F      1.8746501739    -6.6796808169    -2.4828591993
 H      0.6129797291    -4.9628316921    -4.5750020005
 F      0.0454188773    -5.3763546600    -3.9852881424
          10
Energy: -30.032681420367368 Kcal/mole
 H      5.4115218424     1.8466675652    -7.3122906085
 F      5.2714055536     2.7344735431    -7.4941063700
 H      5.4151797607    -0.0188262057    -5.8858856035
 F      5.8792814078     0.4855620642    -6.4950581031
 H      4.3917071259     3.8274172151    -6.7036694481
 F      3.9083812995     4.3653604159    -6.1398412311
 H      4.2528135844     0.5457074333    -4.5419201898
 F      4.3528257549    -0.3551886234    -4.6807469191
 H      4.1008946996     2.9291910648    -5.0092292675
 F      4.2697911682     2.2258510079    -4.4456019552
          10
Energy: -30.619023029405213 Kcal/mole
 H      1.8898190581     1.9722318454    -4.8746183506
 F      2.0572771827     1.0887132823    -4.6950585411
 H      2.8876756366     4.0925151321    -4.4123436335
 F      2.0898816087     3.9514074326    -4.8418809500
 H      2.2521276539     0.8446394599    -3.0762117816
 F      2.3485170797     0.7346438448    -2.1709499171
 H      4.1297487947     4.0083494012    -2.3251457757
 F      4.3713900224     4.3101029796    -3.1566764697
 H      2.6685512145     2.1363245940    -1.4177957456
 F      2.9954107939     2.9633687899    -1.1940778131
          10
Energy: -28.96354027610002 Kcal/mole
 H      5.5637924945    -2.5150852779    -5.1046300302
 F      6.4234072659    -2.2044121589    -5.0309166804
 H      4.2140829702    -4.0409938251    -3.9745316404
 F      4.0584880251    -3.4392645224    -4.6487727392
 H      6.3775282219    -0.8737332223    -3.9652768134
 F      6.6348398563    -0.3403307689    -3.2651614333
 H      5.4649303838    -3.5394966474    -1.9631376310
 F      4.7602341005    -4.0936639407    -2.1559866894
 H      7.0891267445    -1.9291555655    -1.9881637262
 F      6.9755476318    -2.7715132571    -1.6440383063
          10
Energy: -26.100859937393096 Kcal/mole
 H     -1.9313944514     1.4704418492     0.2238441449
 F     -2.6271847888     1.3332781413     0.8051796106
 H      0.2483134202     0.9568452289     0.4257919136
 F     -0.2736626309     1.2972623276    -0.2469236288
 H     -2.3057578154    -0.0326477447     2.1752774210
 F     -2.1414409622    -0.6715555734     2.8122120786
 H      1.2643170942    -0.1779575235     2.5357600069
 F      1.0686832708    -0.2857846146     1.6463839753
 H     -0.7459549923     0.2171861963     4.1070971712
 F      0.0517815244     0.5491452302     4.4141943052
          10
Energy: -28.39635469199888 Kcal/mole
 H     -1.6973551549     3.0509532944     2.4308934170
 F     -2.1189626177     3.8352207805     2.6501208275
 H     -0.3832169109     1.6013895430     1.5071447283
 F     -1.2671914228     1.5927729754     1.7508737113
 H     -1.4107065237     5.4529669542     1.7766128505
 F     -0.9602391976     6.2453362561     1.8772064769
 H      1.0707368267     3.3146381641     1.1178789322
 F      1.0258694661     2.4544870773     0.8032108088
 H      0.8006416200     5.7232768662     1.4305264933
 F      1.4092899747     5.0382813407     1.3956365179
          10
Energy: -31.643242296097753 Kcal/mole
 H      1.9247626622     1.5434246217     2.0383019979
 F      2.0265672965     1.2486484089     1.1759611136
 H      1.9612061566     2.7150604358     4.1510822954
 F      1.9896200642     1.9043333681     3.7235273030
 H      3.7012842351     1.9210144242     1.1882388059
 F      4.3597430761     2.5549150422     1.2623398257
 H      2.7119657082     4.8050943760     3.7916228197
 F      2.3006026469     4.4316206542     4.5211341704
 H      4.0590088921     4.0917103458     2.0466454729
 F      3.6887703877     4.8533412080     2.3983994771
          10
Energy: -31.999286502937508 Kcal/mole
 H      6.2907117676     6.3048646998     0.9309501593
 F      6.3075982926     6.3071944046     1.8477917039
 H      6.3827196131     5.0371218140    -1.0507916996
 F      6.1247405777     5.8656550007    -0.7543653581
 H      5.9279136189     4.9735228582     2.5755279218
 F      5.6191186368     4.2069751531     2.9729436676
 H      6.3789429812     3.0691925306    -0.5429053915
 F      6.3988195616     3.4669242974    -1.3689219551
 H      5.6595665582     2.9580023896     1.7410630498
 F      5.8340982420     2.4073121382     1.0289058071
          10
Energy: -31.588243146946382 Kcal/mole
 H      4.9751044060     4.3424173928    -6.3259212726
 F      5.4138818019     5.0602987078    -6.6906263787
 H      4.6054480672     2.9593297777    -4.6952242884
 F      4.0435086309     3.1405386115    -5.3968484245
 H      4.8386899678     6.5146496400    -5.6341412144
 F      4.5340795111     6.8079903901    -4.8204750212
 H      5.6844364184     3.6600214719    -3.1789195934
 F      5.4628481363     2.7993598078    -3.4048601454
 H      5.2617001782     5.9160971276    -3.4557799686
 F      5.5047802346     5.3034962966    -2.8181897335
          10
Energy: -30.109439422469165 Kcal/mole
 H      1.9666709169     1.7705944082    -2.5234697874
 F      2.8080082900     1.6761288698    -2.8757717697
 H      0.1698741998     2.9081089356    -3.1122108191
 F      0.3965913770     2.2379728817    -2.5287675992
 H      3.4741429677     3.1484075325    -3.3304113795
 F      3.5721278585     4.0145653271    -3.6151193634
 H      0.7396942084     5.1631847558    -4.0227382652
 F     -0.0506231907     4.8162835412    -3.7129852089
 H      2.7613230049     5.4685711887    -4.5082035547
 F      2.0164203971     5.9463688581    -4.7484502861
          10
Energy: -31.458464355408296 Kcal/mole
 H      1.5317996787    -3.8794688025    -0.7305371387
 F      2.0847068805    -4.6110142899    -0.7354183328
 H      0.9105284624    -1.6147920066    -0.6565039343
 F      0.7753725075    -2.3470152031    -1.1917338461
 H      3.1943217427    -4.4602370351     0.3900291266
 F      3.8174543696    -4.4103576366     1.0609291005
 H      2.2953719284    -0.6446800721     0.5808333048
 F      1.4141018435    -0.4742793395     0.3931750310
 H      4.0186292523    -2.7499713845     0.9633465423
 F      3.8011373394    -1.8595624065     0.9358125681
          10
Energy: -31.4160288092514 Kcal/mole
 H      3.9155352065    -0.8972828408    -0.0980452491
 F      3.5637019122    -1.6274887734    -0.5268827814
 H      3.4970349893     0.7393349868     1.2991648087
 F      4.3075624112     0.6568126803     0.8783033503
 H      1.7322497281    -2.3078963260    -0.5384456779
 F      0.9479737325    -2.7237291337    -0.3084821185
 H      1.2954485432    -0.2756765938     1.9938531564
 F      1.9240010351     0.3897301626     2.0490311730
 H      0.3831929182    -2.0641293452     1.1137942316
 F      0.2160447814    -1.4522560445     1.7760340404
          10
Energy: -30.65063913958116 Kcal/mole
 H      4.0582552178    -4.4610560653     1.7510421680
 F      3.2061605956    -4.4126234728     1.4156647108
 H      5.3500824128    -4.4272485245     3.3978573089
 F      5.6103805675    -4.5318752676     2.5248240247
 H      1.7897515980    -3.2893905352     2.0164283914
 F      1.5684761306    -2.5505937985     2.5125186546
 H      4.3733275468    -3.4419876247     5.0073132451
 F      4.7293376192    -4.2860073596     5.0494619744
 H      2.9710795363    -2.1893860067     3.7112786187
 F      3.8388662327    -2.1346146552     4.0025437015
          10
Energy: -32.86840821702711 Kcal/mole
 H      5.2942084121    -4.4025604873     2.8043500482
 F      5.7284168672    -3.6230061711     3.0156486183
 H      4.1501014245    -6.1266568200     3.4145923491
 F      4.5197831740    -5.8872057931     2.6102991129
 H      6.6568226992    -4.0479876855     4.3350499288
 F      7.1066360666    -4.3357904407     5.0805205913
 H      3.9001529970    -5.9520313253     5.6104379602
 F      3.3335449047    -5.9046081803     4.8909969861
 H      6.1736340545    -5.2698452463     5.9761466769
 F      5.5570137854    -5.8396559848     6.3449069866
          10
Energy: -31.9580764283169 Kcal/mole
 H      2.0632600518    -6.7506039800     3.8736990292
 F      2.6493614446    -7.3775889909     3.5507997361
 H      1.4287935571    -5.1229637987     5.3370146182
 F      1.2004214053    -5.5704703504     4.5698946495
 H      3.8466893471    -6.3412630726     3.7260043880
 F      4.2980211838    -5.6744906447     4.1648700880
 H      3.0133673498    -4.6036228888     6.6932337125
 F      2.2008153299    -4.2125025021     6.5268815015
 H      4.6114713539    -5.7434088709     5.9003812945
 F      4.3888746163    -5.6373321844     6.7836068766
          10
Energy: -30.84772427801809 Kcal/mole
 H      1.9713253828    -4.9154375104     1.1839326534
 F      2.6671097388    -5.3529354452     0.7772771640
 H      1.2444995489    -3.7900864467     2.6959344789
 F      0.8501396706    -3.9492818599     1.8835145710
 H      3.7754676029    -5.1747421285     2.0140125158
 F      4.2456523781    -5.2962681522     2.7918599962
 H      2.2960216800    -4.2760199174     4.9371255061
 F      2.0298264561    -3.6851809903     4.2883277988
 H      3.8253706629    -5.5051688818     4.6251518915
 F      3.3365591858    -5.5755320268     5.3978105275
          10
Energy: -31.13916752764777 Kcal/mole
 H      3.1624799021    -2.1368648904     5.9459783268
 F      3.6006424986    -2.2947213175     6.7359048345
 H      2.4305123510    -2.9424555397     3.7437907031
 F      2.1805030692    -2.4764605201     4.4929455608
 H      3.0548993628    -3.9507421922     6.9832076883
 F      2.9354990151    -4.8468273358     7.1370386746
 H      3.0561209331    -4.9783879183     3.2612647242
 F      3.0140465938    -4.2992179337     2.6465722142
 H      2.4049328238    -5.6249541412     5.6149050775
 F      2.3397367060    -5.8454872901     4.7272094109
          10
Energy: -32.822011567750366 Kcal/mole
 H      2.4839878579    -0.9015354858     1.8907091061
 F      1.7466907919    -1.3003426114     2.2625086666
 H      4.1125302888    -0.9851951016     0.5173867944
 F      3.8593970973    -0.3715573016     1.1500488193
 H      0.7173968420    -2.8224724171     1.5975498330
 F      0.6218834498    -3.6253550198     1.1649464139
 H      3.5144588484    -2.8069473985    -0.8476869069
 F      4.1987401734    -2.2098697580    -0.7206185809
 H      1.4779516745    -3.6676027336    -0.3058420346
 F      2.0364770460    -3.5661179241    -1.0260081564
          10
Energy: -32.36351661374425 Kcal/mole
 H      4.1714285137    -1.2700946508     1.7938843831
 F      4.0338273007    -0.4700005039     1.3674992728
 H      3.4037857844    -3.2039941288     1.4562540446
 F      4.0248645834    -2.8731953352     2.0442355780
 H      2.2349844186    -0.0767850191     1.4256867653
 F      1.3245240631    -0.1548735536     1.5021924629
 H      1.5232434187    -3.2748233258     0.0748343987
 F      2.2359507454    -3.8062052561     0.2997132787
 H      0.6740424715    -1.3352521335     0.5897431064
 F      0.2784168283    -2.0292931830     0.1395471802
          10
Energy: -30.18794009932941 Kcal/mole
 H     -0.5770924494     0.8736722097     3.2754068300
 F      0.1909751284     1.3742687283     3.2563196209
 H     -2.4141659209     0.4067335528     4.5361155126
 F     -2.1525628552     0.2448657789     3.6722569248
 H      0.5820793762     3.0827812375     4.7537866224
 F      0.6535144882     3.2291641592     5.6562045217
 H     -1.3447150561     0.6224991077     6.4644013322
 F     -2.1970407307     0.5843843155     6.1282805102
 H      0.5751063192     1.6952989473     6.3662010040
 F      0.3417242465     0.8711904608     6.6937174318
          10
Energy: -33.071242148515836 Kcal/mole
 H     -3.5598827864     2.0833026492     4.7030973546
 F     -3.5312807420     2.5889072441     5.4675807859
 H     -2.6861437770     0.2615041144     3.4813923936
 F     -3.3442097504     0.8993254743     3.5133624952
 H     -2.7539356877     1.5652431423     6.5244159898
 F     -2.3454609634     0.8687009786     6.9590036262
 H     -1.7200552605    -1.1060416909     4.6284024039
 F     -1.3651321138    -0.6995146588     3.8870156410
 H     -2.5286163120    -0.7854517534     6.5546049065
 F     -2.3345093277    -1.5686098950     6.1188586457
          10
Energy: -32.94428329297108 Kcal/mole
 H     -1.2801350132     0.3626082112     2.1725298285
 F     -0.4351300866     0.4405716243     2.5200602305
 H     -3.4014465739     0.0695409763     2.4779153167
 F     -2.7851196462    -0.0679426194     1.8129879680
 H     -0.6288989492    -0.1622104778     4.0929683478
 F     -0.8015545472    -0.2382040553     4.9903556781
 H     -3.7735472233     0.5946609497     4.4490505513
 F     -4.2461391151     0.1499788072     3.8011279510
 H     -2.0096950845     0.8032972129     5.2887616564
 F     -2.7145994112     1.3861086489     5.3545622655
          10
Energy: -32.58627800964712 Kcal/mole
 H     -1.8997839334     2.7305930545     2.9356829621
 F     -1.5274880078     3.4121157265     2.4480236637
 H     -3.6822809214     2.0854944010     4.2370511420
 F     -3.2222711808     1.6779398399     3.5564783551
 H     -2.9992825044     4.0362959875     1.9349886489
 F     -3.8128914609     4.2832880280     1.5915874289
 H     -4.9058226455     3.6545406228     4.8011312522
 F     -4.6817787270     2.9555019445     5.3507113181
 H     -4.9549194378     4.7364555200     2.8452190388
 F     -5.2984812480     4.8501568909     3.6877902707
          10
Energy: -33.08997265200534 Kcal/mole
 H     -1.3598666472     1.9271012248     5.5355000031
 F     -1.3762992002     1.5261134403     4.7109833157
 H     -1.4797670578     3.9416983988     6.7483064486
 F     -1.3072970402     3.0443201468     6.8248268113
 H     -2.8000745498     2.0059946487     4.0829926711
 F     -3.5597118487     2.4530811048     3.8301016376
 H     -2.7564454898     5.3310222796     5.6406412277
 F     -2.1058895435     5.4871644405     6.2677660848
 H     -3.9346456708     4.0487389497     4.4226621561
 F     -4.1503126951     4.8439533324     4.8251678333
          10
Energy: -32.785345536760076 Kcal/mole
 H     -3.5891310219     1.0941064741     3.5662839872
 F     -3.7989803072     1.0082753963     4.4548138423
 H     -2.2010793485     0.3456944198     1.9134231092
 F     -2.8569246740     0.9821106999     1.9891213749
 H     -2.3962632385     0.4893333833     5.2638182292
 F     -1.6122701991     0.0645036072     5.4777424575
 H     -0.3552126840    -0.0573261585     2.8194386288
 F     -0.7712916760    -0.5829940852     2.1937865664
 H     -0.4364056058     0.9804097155     4.5841867313
 F      0.0498759996     1.1757374635     3.8316800728
          10
Energy: -31.91639065096564 Kcal/mole
 H     -1.2170293959    -0.0765426962     1.3721308287
 F     -1.7834777376    -0.3917009165     2.0207451766
 H      0.8647150191     0.7962115918     0.5629512377
 F      0.0181464782     0.5016674443     0.3694197140
 H     -0.5621316042    -0.8477522440     3.0335420409
 F      0.2716768591    -0.8932507107     3.4124646401
 H      2.9157903354     0.5042768566     1.5401600028
 F      2.6366438325     0.9164234025     0.7700291993
 H      2.0787661983    -0.8529535433     3.0610216601
 F      2.9578196570    -0.6351931025     2.9170271910
          10
Energy: -33.63123012217386 Kcal/mole
 H     -0.5277389030    -1.5109014735     3.8071605343
 F     -1.1145817961    -1.1515736012     4.4132858505
 H      1.2432465675    -2.9122928383     3.3491345534
 F      0.6514066038    -2.4388292442     2.8329498166
 H     -0.6917134885    -1.3220466520     6.0043928917
 F     -0.4534467740    -1.6897874565     6.8099266734
 H      1.4323715460    -3.9357794197     5.1911476516
 F      2.0585409125    -3.8071129079     4.5336935823
 H      0.0018814779    -3.2911751586     6.6973286370
 F      0.2803287832    -4.1085267489     6.3886338430
          10
Energy: -33.150838388520754 Kcal/mole
 H     -4.4701337909    -2.0013351192     2.8729246841
 F     -5.0713221857    -2.6735514301     2.7068321034
 H     -3.1624419815    -1.2927034179     4.6307395518
 F     -3.4812325195    -0.9018122208     3.8649290890
 H     -6.3043523602    -2.8216491540     3.9176546893
 F     -6.8007041509    -2.7621104483     4.6864063023
 H     -3.4783084864    -2.8619197456     5.9907262463
 F     -2.7106167141    -2.4280569819     5.7391284622
 H     -5.6160377079    -3.3492256686     5.8207650504
 F     -4.9057299241    -3.5501683605     6.3647998718
          10
Energy: -33.549988162648305 Kcal/mole
 H     -4.8195809673    -6.4555445594     3.2514178285
 F     -5.6696634009    -6.4898628391     2.9092612682
 H     -3.2506393042    -6.8930746072     5.0132587286
 F     -3.3768442125    -6.4973577934     4.1957200295
 H     -6.6262987159    -6.6250881351     4.2600267556
 F     -6.9886106529    -6.7189183037     5.0971736720
 H     -4.1495278994    -6.7637692080     6.8863386263
 F     -3.4040555127    -7.2371319121     6.6391794245
 H     -6.1954312405    -6.2064480089     6.3646843167
 F     -5.6431826867    -6.0223085056     7.0732061429
          10
Energy: -32.86952932004357 Kcal/mole
 H     -3.3435251516    -2.0002427931     4.3079827856
 F     -3.7541275956    -2.6913529594     3.8667783308
 H     -1.8859979042    -1.4632986479     5.8068446259
 F     -2.2654553152    -0.9163071633     5.1762089236
 H     -3.0021400257    -4.2960137461     3.7467671678
 F     -2.8730785430    -5.1760170954     3.9699850857
 H     -1.6119164402    -3.4854925380     6.7326712569
 F     -1.2808460809    -2.6383638251     6.8495231329
 H     -2.5888037893    -5.0548211472     5.6202798591
 F     -2.4080109444    -4.9517042487     6.5133475230
          10
Energy: -33.68061163730499 Kcal/mole
 H     -3.1117503764    -0.0796924236     5.7092212207
 F     -3.9747243023     0.1396266732     5.9284565671
 H     -1.8218108061    -1.6265284605     5.0813450599
 F     -1.6083662691    -0.7841069767     5.3740163317
 H     -4.9166481798    -0.9513838242     6.9578390875
 F     -5.2428610785    -1.6669727194     7.4294392123
 H     -2.7132132506    -3.3733806235     5.5817919607
 F     -2.5666227468    -3.0652554606     4.7306403243
 H     -4.0619314186    -2.8361037642     7.3529095935
 F     -3.3932700183    -3.4474179103     7.2112199801
          10
Energy: -33.59510754624972 Kcal/mole
 H     -3.0085457542    -0.3373756625     4.0634331570
 F     -3.7381530705    -0.8384656347     3.8237020500
 H     -1.1456192703    -0.1605327102     5.6129037779
 F     -1.6033056733     0.2309891853     4.9214395620
 H     -4.0614543158    -1.2778806288     5.3190026943
 F     -4.1108540298    -1.4026989155     6.2261240001
 H     -0.9846721578    -1.8563868585     6.8806380307
 F     -0.5182132298    -1.0670096398     6.8669021248
 H     -2.9248999557    -2.4975269674     6.6166820859
 F     -2.1592916536    -2.9973883045     6.6864787288
          10
Energy: -33.38261076112474 Kcal/mole
 H     -5.0132178976    -1.0962568653     5.9717979740
 F     -5.1421618606    -0.8944833186     5.0866144392
 H     -3.2863040407    -1.7031609519     7.2630784531
 F     -4.1907924658    -1.5989648308     7.3723160712
 H     -4.9247533622    -2.4024561375     4.3132044878
 F     -4.6533955055    -3.1683865576     3.8882286002
 H     -1.9003351491    -2.7467112792     6.0938676058
 F     -1.7903403836    -2.0124952299     6.6321212120
 H     -3.1047761699    -3.8241087776     4.5697634390
 F     -2.3353727979    -3.9777089028     5.0444364346
          10
Energy: -33.50140016036053 Kcal/mole
 H     -4.0647371485    -2.3979911217     6.3144455516
 F     -4.6168133129    -1.8324754671     5.8493724895
 H     -2.5560247224    -3.8684478539     5.6314223065
 F     -2.8064083957    -3.5720996691     6.4623102469
 H     -4.0187669044    -1.3411837893     4.3798508505
 F     -3.6141656349    -0.9530675630     3.6542114032
 H     -1.6129480545    -3.3539701153     3.8788481821
 F     -1.9762530060    -4.1555838961     4.1363629559
 H     -2.0022126067    -1.3746783259     3.4674695489
 F     -1.1925620857    -1.8052037008     3.4657562048
          10
Energy: -33.988272213755096 Kcal/mole
 H     -3.0066819418    -1.3488924381     4.7664360089
 F     -3.5236290676    -0.7661781385     4.2825985215
 H     -1.7492256861    -3.1255997299     5.0178307729
 F     -1.9106270970    -2.3571454533     5.4914515172
 H     -2.6695458854    -0.4672579738     2.8858683788
 F     -2.1553176152    -0.4797100395     2.1267219950
 H     -1.7551817332    -3.8069823613     2.9302446015
 F     -1.6699461680    -4.2755258720     3.7138841086
 H     -1.9710276436    -2.0763109095     1.6067808089
 F     -1.9794634486    -2.9901706120     1.5314264373
          10
Energy: -33.903393869290085 Kcal/mole
 H     -2.0725618715    -0.6130879948     5.0107702095
 F     -1.4316799549     0.0078242754     4.7995184129
 H     -3.0476939038    -2.5767218533     4.5527653665
 F     -3.2055494696    -1.8267402468     5.0562514241
 H     -0.9039763572    -0.5263255848     3.3008397850
 F     -0.6706126923    -0.8689541334     2.4828935291
 H     -2.5195066435    -3.5851994482     2.6978880247
 F     -2.7495187290    -3.8145170598     3.5554408648
 H     -1.5505772401    -2.0338556543     1.5665800020
 F     -2.0436034510    -2.7481799484     1.2706831310
          10
Energy: -34.150073358928665 Kcal/mole
 H     -0.6053839172    -1.0074231082     4.8949347906
 F     -0.1714381928    -0.4287979513     4.3312211789
 H     -1.5289218809    -3.1465353368     5.2127970215
 F     -1.5580790187    -2.2916619122     5.5432970809
 H     -0.7167458014    -0.6967086397     2.7869243702
 F     -1.0714973939    -0.9926671231     1.9948076592
 H     -1.2152210270    -4.2798669679     3.4171086155
 F     -1.3788324562    -4.5416635281     4.2805800171
 H     -0.8487513426    -2.7098153112     1.8564630573
 F     -0.7567956843    -3.6183064850     1.9405876314
          10
Energy: -34.21064236495073 Kcal/mole
 H     -0.2291163669    -1.1620300568     5.0495585742
 F      0.3588305311    -0.8569810038     4.4154036085
 H     -1.5755328267    -2.6649364397     5.5898419787
 F     -1.5041510550    -1.8132259399     5.9220811503
 H     -0.5152457513    -0.8841829940     3.0189086439
 F     -1.0402764456    -1.1291460548     2.3081169241
 H     -1.4601194226    -3.9980022065     3.8800543621
 F     -1.4309505997    -4.0976993439     4.7911518655
 H     -1.2666871147    -2.7836638869     2.1843228304
 F     -1.4100811095    -3.6854649499     2.2684774802
          10
Energy: -34.23015405630002 Kcal/mole
 H      0.2204990820    -1.2273907851     5.2566526028
 F      0.5745233956    -0.7370719416     4.5673462724
 H     -0.8492822413    -3.0146890359     5.8698812449
 F     -0.6832778136    -2.1923523170     6.2401431126
 H     -0.4965552721    -0.9501707695     3.2730492085
 F     -1.1181717859    -1.1643206696     2.6338139388
 H     -1.5036607518    -4.2638067793     4.2816777461
 F     -1.0895849277    -4.4290907281     5.0829963021
 H     -1.8111085320    -2.7252769594     2.6723019292
 F     -2.0824449497    -3.5890593742     2.8177168125
          10
Energy: -34.421591787138254 Kcal/mole
 H      0.3172363735    -1.2517940503     5.1293372904
 F      0.6421401402    -0.8196980461     4.3886487016
 H     -0.5051538012    -3.0440947484     5.9240318967
 F     -0.4048929980    -2.2093825924     6.2902181716
 H     -0.4357719145    -0.7822262350     3.1165279190
 F     -1.1158004026    -0.9036568880     2.5134484450
 H     -1.1922108877    -4.0820272526     4.2151162389
 F     -0.7234101625    -4.3492381741     4.9565427042
 H     -1.7140622718    -2.4542033341     2.6996312347
 F     -1.9654588334    -3.3109171717     2.9087488315
          10
Energy: -34.488335756253036 Kcal/mole
 H      0.3084988267    -1.2478527790     5.1528428003
 F      0.6227038180    -0.8119835940     4.4097531174
 H     -0.5008958847    -3.0313791029     5.9129693336
 F     -0.3926434596    -2.2089782835     6.3039006634
 H     -0.4692666960    -0.7887204028     3.1503215915
 F     -1.1177690213    -0.9239765522     2.5162557368
 H     -1.1797833924    -4.0774310939     4.1725608853
 F     -0.7090209185    -4.3515170265     4.9102251685
 H     -1.7063745458    -2.4622587633     2.6958911773
 F     -1.9648598670    -3.3162974454     2.9072966366
