          3
Energy: -0.069411265421721 Kcal/mole
 Ne     4.6925202354    -4.7396008176    -1.4197266893
 Ne     4.0612034218     4.2196308512    -0.3547228022
 Ne     2.9460661748     2.8395094577    -2.8788965107
          3
Energy: -1.5949076543349017E-4 Kcal/mole
 Ne     3.2970276460     6.2091251959    -5.8461553683
 Ne    -5.0006779873     1.4009393393     5.0077059833
 Ne    -0.2520471376    -3.6077718834    -4.2415020099
          3
Energy: -0.0011648300938882211 Kcal/mole
 Ne     4.6697705949    -3.8326290969     0.5545005763
 Ne     5.0726326707     0.7721291915    -4.8874328044
 Ne    -0.8610001144    -7.0297453715     7.3003815947
          3
Energy: -0.006630652112821724 Kcal/mole
 Ne     1.4590146120    -2.7161038838    -4.3129243353
 Ne     0.3826097189     1.4140647461     6.9512872743
 Ne    -2.1178826944    -3.5414403027    -0.6521114392
          3
Energy: -0.00104319887991115 Kcal/mole
 Ne    -4.1158548904     0.3462994257    -5.9158448819
 Ne    -4.6845710662    -6.3098907011    -1.3421481464
 Ne     3.1675160205    -2.8365225612    -2.2726701245
          3
Energy: -0.008909365597568504 Kcal/mole
 Ne     3.8015782506    -4.5797633258    -1.3248277818
 Ne     4.5316766875     2.5375666777    -0.4538044960
 Ne     0.8988386733    -5.1295225377     2.7279428163
          3
Energy: -0.0010349519082905297 Kcal/mole
 Ne    -6.3795934734     3.6998209277     7.4108868735
 Ne     2.4880679318    -0.3748587853    -0.2244358281
 Ne     3.7697389655     6.6295119166    -0.2397974867
          3
Energy: -0.0014089950816649213 Kcal/mole
 Ne     7.0850695561     2.5193137940    -5.9583188628
 Ne    -1.9261506067    -3.5380478881     2.1664131501
 Ne     7.2266464396    -3.0827836052    -2.0846139308
          3
Energy: -0.09233713025782478 Kcal/mole
 Ne     1.8158516583     1.0937919794    -7.0304499884
 Ne     0.4218767098     0.4665882489    -3.0380668396
 Ne    -2.4897853318     1.4322855506    -3.4926628267
          3
Energy: -0.2069994243291054 Kcal/mole
 Ne    -1.0201967690    -0.0015592632    -5.9101119181
 Ne     0.4332670755     0.7030257946    -3.2415717773
 Ne    -2.5747214331     1.4388420008    -3.6190384922
