          3
Energy: -0.004882397892484168 Kcal/mole
 Ne    -4.0192647586    -1.4972706856     7.1896521436
 Ne     0.7012780721    -2.1151855716     3.8936438335
 Ne    -6.5647300018    -7.3600788139     4.9336845048
          3
Energy: -0.002404314352039523 Kcal/mole
 Ne     6.0337429868    -1.9417913590    -2.6955063081
 Ne    -6.7908486100     4.9074892478     3.9151556401
 Ne     1.5120361904     2.0975261456    -3.6984423534
          3
Energy: -5.324588036691175E-4 Kcal/mole
 Ne    -5.3905285542    -5.3597604322    -0.7119768928
 Ne     3.9979743512    -1.8766410466    -1.5189251033
 Ne    -0.7361867134     5.0028224088    -0.2320177660
          3
Energy: -9.921493097968442E-5 Kcal/mole
 Ne    -6.7513629537    -3.9032080216     7.2286896494
 Ne     7.0464457273    -6.9909278702     3.8061821806
 Ne    -3.6994944201     4.0241703330     0.4544407802
          3
Energy: -0.002434969015216217 Kcal/mole
 Ne    -7.2031127312    -1.4775071655     1.7119875207
 Ne    -6.6317024747     4.5066246010     0.5458376804
 Ne     6.2914400269     4.4362225357     0.3627768447
          3
Energy: -3.8706445744196723E-4 Kcal/mole
 Ne     4.8797880214     5.8068145503    -4.9000687873
 Ne    -5.0806213768     6.0362252292    -6.0874528036
 Ne     6.2087653375    -2.7457328743    -2.6694850522
          3
Energy: -0.0012748683442321178 Kcal/mole
 Ne     1.2140293238    -4.2194811753    -0.8689032491
 Ne     5.5755293168     5.5086176425    -4.3283241980
 Ne     0.4555292752     3.3409751709     0.8919057262
          3
Energy: -0.01237598186530054 Kcal/mole
 Ne    -2.2910695617     3.2661809164    -0.3861609183
 Ne     5.7787079582     2.7552823792    -6.7147655714
 Ne     0.6758149249    -0.0514340771    -1.8294475589
          3
Energy: -0.005258040886695628 Kcal/mole
 Ne     0.5079636541    -2.3479970989    -0.4189976249
 Ne    -5.6633680417     4.4336137377     0.9797429734
 Ne    -4.1764425176     5.5080881399    -4.1230917689
          3
Energy: -0.2069997416701277 Kcal/mole
 Ne    -3.0059275895     1.9379880907    -1.7710328231
 Ne    -3.4725455922     4.7719822557    -0.5522407585
 Ne    -5.2361443571     3.7862396613    -2.9315179993
