          4
Energy: -0.007832485119073154 Kcal/mole
 He    -1.3097071623     1.5371112445     5.6898809997
 He    -0.6704835370    -5.3967257568    -4.2962594141
 He     0.0052421540    -4.7321511374    -1.8704691368
 He     4.3880146517     2.3838953255     1.0486689898
          4
Energy: -0.0231339149181177 Kcal/mole
 He    -0.1974903360    -2.1153894457    -3.8485216767
 He    -2.6617940496    -1.1492964070    -3.4060868221
 He    -3.2179398224    -1.8786919304     6.0971804942
 He     3.4599100037    -2.7419503241    -3.6880968976
          4
Energy: -0.006493815136885209 Kcal/mole
 He    -1.2039872603    -5.7113238272     0.4811403623
 He    -3.5918592229    -5.1192646662     6.1376880958
 He    -1.3967504755     0.5890795118    -5.9392868289
 He    -5.0628685461     1.0372639175    -4.7516240795
          4
Energy: -0.014113968850115044 Kcal/mole
 He     7.2476887792     6.5116432527    -4.1352952154
 He     1.4336567035     2.7240253021    -5.6167385531
 He    -2.2766566736     0.7440319442    -0.3777525600
 He     1.1347971001     3.5271513778    -2.3212358692
          4
Energy: -0.014126189852346394 Kcal/mole
 He    -4.7160213273    -3.9333293099    -5.4792320233
 He     3.5916328641     1.5230593256    -0.6538206685
 He     6.0214318131     0.0859286259     1.0091852131
 He     7.4951817881     4.7676159051     6.9908741507
          4
Energy: -0.0016949858533265103 Kcal/mole
 He     4.6814673978     4.6530790585    -0.7676136536
 He    -7.3399872171    -4.4119193759    -1.7864213129
 He    -0.9445607326     5.5164292732     0.1265895228
 He    -6.6177784545    -6.1321064562    -6.6706847783
          4
Energy: -4.3835609246280563E-4 Kcal/mole
 He    -2.0226859177    -5.3560118897    -1.8164685997
 He    -3.6199792091     2.4354784320     7.4486376794
 He    -0.4751965356     0.8500917196    -1.0827163212
 He     6.9021881737     2.9520108754     1.9682276062
          4
Energy: -2.936322048775031E-4 Kcal/mole
 He     2.6509945105     6.6535791568    -3.5461722242
 He    -5.5354527608     2.3596473538     5.9155849380
 He     5.3881370674     0.8530438081    -6.9317334731
 He    -0.8210244510    -2.7506889715     3.0029191216
          4
Energy: -0.011610043519353349 Kcal/mole
 He    -5.5279912856    -4.2029549945     5.9423138449
 He    -2.3653400660    -3.2077632878     5.0110639664
 He    -1.2579551719    -5.2707292208    -7.1536272435
 He    -0.3428477319     1.1712703013     1.1612999300
          4
Energy: -0.11996030030795721 Kcal/mole
 He    -5.4522316027    -3.3885896712     4.8525733032
 He    -2.6187029095    -3.1646618547     4.4561013106
 He    -4.1006490503    -5.1407833965     3.0078620468
 He    -4.4217005011    -2.3474363090     2.3954376333
