          2
Energy: -0.2283024691825895 Kcal/mole
 Ar     3.3258514257    -0.2662357473    -4.0839643950
 Ar    -0.3261573941    -0.6243476846    -2.6884211560
          2
Energy: -5.372781492341569E-4 Kcal/mole
 Ar     5.6763133144    -1.6145338119    -5.3545364404
 Ar    -0.9280739182    -4.0205357730     4.1178042209
          2
Energy: -3.6425151311496713E-4 Kcal/mole
 Ar    -4.0672136342     3.1976805241     3.0514574218
 Ar     0.3061597028    -6.4514546137    -3.7422824514
          2
Energy: -0.21535664873019622 Kcal/mole
 Ar     3.5688874692     1.2779770558    -6.3646911507
 Ar     2.0397378480     1.3402867880    -2.6324914310
          2
Energy: -0.07397856617403441 Kcal/mole
 Ar    -4.3865995450     2.7347620623    -0.0728339984
 Ar    -5.2913405942     5.4262245179     4.1798366722
          2
Energy: -4.2045714147934387E-4 Kcal/mole
 Ar    -4.5377224705    -5.5035935144    -4.7410283235
 Ar    -1.2993787323    -1.5027226506     6.4165924639
          2
Energy: -0.16178624770823383 Kcal/mole
 Ar    -0.2587015015    -0.4676095814     1.8175194647
 Ar     0.5534819968    -0.7282054214     6.1029061978
          2
Energy: -0.21013332977661997 Kcal/mole
 Ar     0.1989332269    -3.6076742209     5.4143696674
 Ar    -0.2964202206    -0.7724549152     3.1770900438
          2
Energy: -0.22772612355795924 Kcal/mole
 Ar    -0.2122094768     3.3474696275     5.6534038844
 Ar    -3.5198751882     3.9801326368     4.0662424931
          2
Energy: -0.23390000013387544 Kcal/mole
 Ar    -0.0278748010     3.3577004677     5.6260861987
 Ar    -3.4350843894     4.0506412694     4.0500188916
