          2
Energy: -0.03260654480944174 Kcal/mole
 Ar    -2.1412311855    -2.1198162202     4.4022225610
 Ar    -7.2436434407    -4.6868899582     2.8677011054
          2
Energy: -0.14350255230465586 Kcal/mole
 Ar    -0.9875236413     5.8209081397     1.3698238163
 Ar    -4.8460388883     5.1730615893     3.5702393333
          2
Energy: -0.005065762342268407 Kcal/mole
 Ar    -6.4665220012     3.6243155842     5.1723187728
 Ar    -3.8621322085     1.4329397172    -2.1874634553
          2
Energy: -0.001246774457880449 Kcal/mole
 Ar     0.9526268471     0.8515065804    -6.8496741140
 Ar    -0.0028527931     4.6780693035     2.6112196044
          2
Energy: -0.003494040966161126 Kcal/mole
 Ar     0.5937204280    -0.5501193511    -0.9916097423
 Ar    -4.8666785808     5.3473501228    -4.1323107627
          2
Energy: -0.007567149982003124 Kcal/mole
 Ar     7.2432791965    -3.9854077202    -5.8474947769
 Ar     0.0864307224    -5.9783467385    -4.3394824510
          2
Energy: -1.7263829461999224E-4 Kcal/mole
 Ar    -7.0766643278     5.3460086466     5.3213598596
 Ar    -4.9439697725    -2.4683392386    -6.4066955721
          2
Energy: -0.1526216151312238 Kcal/mole
 Ar     6.0783561048     2.4100165035     4.2670614238
 Ar     6.4846679065     1.2562820173     0.0111931054
          2
Energy: -0.19768322620210788 Kcal/mole
 Ar     6.8246676211    -7.2576317731     5.1686584654
 Ar     5.2252835309    -3.4557500179     5.6205223441
          2
Energy: -0.23389999968445768 Kcal/mole
 Ar     6.7575722116    -7.0386346356     4.8037111898
 Ar     4.9068146619    -3.8399847742     5.7609872021
