          3
Energy: -0.00336204103188327 Kcal/mole
 Xe    -3.3292605487    -8.1649148272     6.0965673126
 Xe    -4.4609311127     1.5572347484    -3.7702171802
 Xe     6.4145798058     6.0923669972    -2.7955342523
          3
Energy: -0.9650208256880151 Kcal/mole
 Xe    -5.6474368621     5.7401160836     3.6769880217
 Xe    -1.0675500092     4.3578397310     4.4049947495
 Xe    -3.9870876194     2.9280319367     0.1914878403
          3
Energy: -0.005029054556985067 Kcal/mole
 Xe    -2.6875377766     5.1775427096    -7.7785380239
 Xe     5.5585267539    -1.5810218870     2.1701437668
 Xe     4.6645088257    -7.5875315455    -6.9324599966
          3
Energy: -0.8708306225668807 Kcal/mole
 Xe     2.0001641433    -2.2258442640    -5.2575816455
 Xe    -1.9537174057    -0.4283445171    -4.3179073570
 Xe    -6.0674067017    -1.4193234043    -2.6492597884
          3
Energy: -1.0525209356295695 Kcal/mole
 Xe     0.2942336373    -1.9908451257    -3.1093911819
 Xe     2.9585878213    -4.5039973314    -6.8594337735
 Xe     1.2521933904    -6.1428663566    -2.7715055005
          3
Energy: -0.912744544206946 Kcal/mole
 Xe     3.8264217466    -6.3076370675     2.5983233315
 Xe     6.2330946201    -3.6033584581    -1.7777457168
 Xe     6.1521357837    -2.7940430728     2.2995820705
          3
Energy: -1.1913054876362232 Kcal/mole
 Xe     7.3716778890     2.5121492036     3.0554840387
 Xe     5.1519229445    -1.5863016699     3.3480560900
 Xe     4.9953416577     1.7246000707     6.8147446132
          3
Energy: -1.2428995566177161 Kcal/mole
 Xe    -2.3090595892     0.3049737277     4.9854524529
 Xe     1.4962904526     2.0398590086     6.7071369213
 Xe     1.7198365963    -1.8154471868     4.9734226768
          3
Energy: -1.1548900696089848 Kcal/mole
 Xe    -2.5953004946    -3.5264129014     2.0328279518
 Xe    -0.3257868100    -2.8642928648     5.5092279849
 Xe    -2.2163745693    -6.7609805483     5.6597011966
          3
Energy: -1.2989977060903322 Kcal/mole
 Xe    -3.0725357945    -3.6918413296     2.3211045948
 Xe    -0.0675134355    -3.0629233954     5.4973784659
 Xe    -2.6807057246    -6.6222187372     5.6047297751
