          3
Energy: -0.8737353330796508 Kcal/mole
 Xe    -0.7297837972     4.8072754293    -7.9425557389
 Xe     1.4878113819     3.6601357551    -4.1404072960
 Xe     2.5417597390     5.6547598029    -0.3724447184
          3
Energy: -0.8767903488501076 Kcal/mole
 Xe     3.4115340363     7.5737715420     6.0421653052
 Xe     8.0966720081     3.6277859812     2.0780614565
 Xe     7.4539541092     6.2215807785     5.4181825680
          3
Energy: -1.1753569162396045 Kcal/mole
 Xe     5.7193478316     1.4560986325    -3.0531708033
 Xe     4.1535148639    -1.7097631461    -6.4165483654
 Xe     3.3018961937     2.4783787474    -6.8427244580
          3
Energy: -0.4192279657511247 Kcal/mole
 Xe     3.1751457994     7.5435855594     7.2545005602
 Xe    -2.7437644003     0.6058515742    -5.5344945856
 Xe     1.3789219970     0.5018986853    -4.3441747395
          3
Energy: -0.43086875170976874 Kcal/mole
 Xe     5.4710743645    -7.9968899456     0.7901464424
 Xe     6.0131347488    -3.9195905035     2.2182666680
 Xe     0.6921581865     6.9753434954    -3.8803740517
          3
Energy: -1.2550834831212176 Kcal/mole
 Xe     6.7996118047     2.2956239483     0.6530964304
 Xe     4.9698116805    -0.4183766863     3.7101417089
 Xe     7.5757437800    -2.1474294315     0.2546937327
          3
Energy: -1.2399971725972172 Kcal/mole
 Xe     6.1510591397    -4.9956685262     5.5562827863
 Xe     3.7965140509    -8.0006696518     3.4855734666
 Xe     1.8407497205    -4.0772403789     5.3138730590
          3
Energy: -1.2877524154603814 Kcal/mole
 Xe    -0.9206806617    -0.6667483967    -1.7844479339
 Xe     2.4565480218     2.0326065531    -1.7138880959
 Xe    -0.0183097887     1.6680910807    -5.3497990691
          3
Energy: -1.2400277591867552 Kcal/mole
 Xe    -2.8162042500    -2.8716988227    -1.8258011826
 Xe    -2.5892650364     0.7227011366    -4.3998802275
 Xe    -1.2393575732    -3.6112901861    -5.8518137576
          3
Energy: -1.2989991583630758 Kcal/mole
 Xe    -2.6200186270    -2.6059643334    -1.7040271068
 Xe    -2.7603916160     0.5900166137    -4.7494703678
 Xe    -0.8691597815    -3.2852996347    -5.7012689796
