          3
Energy: -0.4554033357949369 Kcal/mole
 Xe    -2.7479497350    -2.0933804953     2.7904844724
 Xe    -2.7409156606    -6.3242422988     2.2673401087
 Xe     0.0734719715    -4.0935393465    -4.7229146710
          3
Energy: -0.32656323595893794 Kcal/mole
 Xe    -3.2380455120    -2.7738947230    -0.7406779286
 Xe    -6.0654058318    -0.7573998644    -5.9413644103
 Xe     0.5041097824    -3.4464442940    -4.8797893807
          3
Energy: -0.409193033728562 Kcal/mole
 Xe     0.5184495971    -1.7422928815     2.5901989699
 Xe     2.2041679316     7.3476800272     6.1004128690
 Xe     0.5410100655    -0.3357726434    -1.8580590117
          3
Energy: -0.29155521699297554 Kcal/mole
 Xe    -3.0885011571     5.1880397602    -4.7763825863
 Xe    -2.6527631643    -4.1999567915     0.0723802645
 Xe     0.1750960028    -4.6563364441     4.3031350208
          3
Energy: -0.39031023380866475 Kcal/mole
 Xe     8.1175756656     0.0866931334    -5.2412432703
 Xe    -5.7926352928     1.9037240431    -0.8679184516
 Xe    -3.6823003669    -1.8714388463     0.9980882431
          3
Energy: -0.8366623564257869 Kcal/mole
 Xe     7.9571311625     2.5799619540    -6.5645423043
 Xe     3.0450030315     2.7459177179     0.4075014141
 Xe     5.1925111544     2.4523415173    -3.3802401260
          3
Energy: -1.001924204081142 Kcal/mole
 Xe     0.6572819827    -2.6441761072    -4.7266414708
 Xe     4.3295046292    -4.3181740839    -7.3312923468
 Xe     1.4050256818    -7.7200175657    -5.8247236069
          3
Energy: -1.231532179448216 Kcal/mole
 Xe    -5.2776407885     7.3688835997    -1.5963649821
 Xe    -7.9607671862     4.2108480252     0.7955030064
 Xe    -4.3006775390     3.0224269451    -1.5099527236
          3
Energy: -1.256582894348294 Kcal/mole
 Xe    -0.2954188300     4.3972453673     6.5721456376
 Xe    -4.6302726744     4.6881201292     4.9857812974
 Xe    -1.1911193372     5.1941488173     2.1640354051
          3
Energy: -1.2989944401351075 Kcal/mole
 Xe    -0.4246432764     4.9035302229     6.5131832110
 Xe    -4.5268481980     4.6016727424     4.9070350298
 Xe    -1.1013979826     5.0305529932     2.1526472937
