          4
Energy: -6.323550096095914 Kcal/mole
 H     -1.9926288282     4.1216872273    -2.8097530380
 F     -1.1177813802     3.8468589199    -2.8091664434
 H     -4.1539909880     3.5454372629    -2.8068785147
 F     -3.6747379706     4.3269977216    -2.7876744867
          4
Energy: -6.314993979899327 Kcal/mole
 H     -1.4878920373     4.8253358483    -2.5160395767
 F     -0.6424463851     4.7154688168    -2.8537374957
 H     -3.3990949578     3.8448189620    -2.0618998170
 F     -3.0871313703     4.7043807925    -1.9931889765
          4
Energy: -6.306979629398256 Kcal/mole
 H     -1.7427219578     4.2818968660    -1.5613641166
 F     -0.9699723047     3.8030331050    -1.4412122458
 H     -2.5975422358     6.2952864696    -1.6353944565
 F     -2.9614726570     5.4572199014    -1.7134205785
          4
Energy: -6.301966488647736 Kcal/mole
 H     -1.2030645708     5.2482421064    -1.2828635491
 F     -0.4361913448     4.8971632695    -0.9229495240
 H     -2.8856243212     5.0769335934    -2.7120325811
 F     -2.6098567142     5.6697691911    -2.0690806536
          4
Energy: -6.323612723091458 Kcal/mole
 H     -1.3184315561     5.3257562661    -1.0336783213
 F     -0.4480863364     5.0493700857    -0.9500190253
 H     -3.1301521759     6.2640445921    -0.0824724508
 F     -2.9079420881     5.9155317187    -0.9010385471
          4
Energy: -6.313483944916015 Kcal/mole
 H     -1.6122493997     5.2168489950    -1.3525875907
 F     -0.7099931269     5.2717385161    -1.5068917019
 H     -3.3159584988     4.2075119475    -0.1866630508
 F     -3.1987511168     4.8650789764    -0.8149599807
          4
Energy: -6.321566278956368 Kcal/mole
 H     -1.7692638738     5.0472471412    -1.8819323320
 F     -0.8714813315     5.0347662014    -1.6956000137
 H     -3.8044212721     4.1424276636    -1.5403151733
 F     -3.4391723253     4.8049245111    -2.0585623479
          4
Energy: -6.323670662687448 Kcal/mole
 H     -1.5825323712     3.9152500804    -1.1040714456
 F     -0.8131526904     4.0352884913    -0.6197836317
 H     -3.8195397586     3.9517165714    -1.0257709598
 F     -3.1848258765     3.7998110207    -1.6699386333
          4
Energy: -6.310919421154097 Kcal/mole
 H     -1.9293782892     4.5107706801    -0.7714095623
 F     -1.0726538920     4.3288051526    -0.4997464362
 H     -3.7481588532     3.5931456494    -1.5552246483
 F     -3.5297070745     4.4489086571    -1.3085720689
          4
Energy: -6.322268779423609 Kcal/mole
 H     -1.9981945818     3.8222251607    -0.9026449731
 F     -1.1763395150     3.8726658112    -1.3062524433
 H     -4.2129029774     3.6875881512    -1.2410580460
 F     -3.6579919351     3.7462560983    -0.5133762425
          4
Energy: -6.30685851288581 Kcal/mole
 H     -2.1209883373     3.5119051689    -0.9443015199
 F     -1.2153667897     3.5814785341    -1.0703894234
 H     -3.8713354869     4.6720533881    -0.2601446328
 F     -3.7603508527     3.8286749814    -0.6026125496
          4
Energy: -6.302785807379905 Kcal/mole
 H     -2.2246232555     3.6702278195    -0.5680562169
 F     -1.3275763337     3.7685126957    -0.4051577724
 H     -4.3227539340     4.0687411918     0.0556230349
 F     -3.8922002552     3.6788057458    -0.6539281456
          4
Energy: -6.324405655096314 Kcal/mole
 H     -2.1422137708     3.4929462802    -0.4618973861
 F     -1.2689467291     3.7686884561    -0.4143587026
 H     -4.2472858875     4.0050070683    -0.9806550930
 F     -3.8075509857     3.2714180288    -0.6499447407
          4
Energy: -6.3172815603357435 Kcal/mole
 H     -2.4040406219     4.0556858179    -0.9205529713
 F     -1.5041517923     4.2319730678    -0.9171033491
 H     -4.2160921150     3.7611974116    -2.1397929213
 F     -4.0188074133     3.7575926772    -1.2442736572
          4
Energy: -6.312810208527196 Kcal/mole
 H     -2.5708705888     3.9242212655    -1.2138166879
 F     -1.6552445246     3.8779192366    -1.2331566156
 H     -4.5369792681     3.5570585388    -2.2163859783
 F     -4.2311335387     3.8927036907    -1.4197118154
          4
Energy: -6.324533370403287 Kcal/mole
 H     -2.5430213184     3.4551266654    -1.2161447532
 F     -1.7122702717     3.8431664721    -1.2290601280
 H     -4.7645408332     3.7991748550    -1.1842861603
 F     -4.1997809391     3.0774997666    -1.2177574745
          4
Energy: -6.322844332249758 Kcal/mole
 H     -2.7461587955     4.0546149144    -1.2290275511
 F     -2.0486151017     4.6244822498    -1.0570594860
 H     -4.9352792513     3.6247407859    -1.0091383606
 F     -4.2049386624     3.1993177115    -1.3648163498
          4
Energy: -6.314891387939326 Kcal/mole
 H     -2.7146041382     4.1674748740    -1.2844412453
 F     -1.8442418146     4.4536348735    -1.3227933031
 H     -4.0510323152     2.3968928716    -0.9287326736
 F     -4.1513449864     3.2774988581    -1.1640185941
          4
Energy: -6.31424275594469 Kcal/mole
 H     -2.2733772804     3.4243198721    -1.3986760989
 F     -1.4907115134     3.6466744810    -1.8216202146
 H     -4.5142871107     3.5017183666    -1.3045384405
 F     -3.8365652970     3.1347926542    -0.8076001497
          4
Energy: -6.326350682489533 Kcal/mole
 H     -2.1079988511     3.8625168248    -1.3574070818
 F     -1.2299571668     3.9442655444    -1.6089005160
 H     -3.5195576887     3.5529756086     0.3421624248
 F     -3.5964986596     3.6891012484    -0.5614076595
          4
Energy: -6.315466833159121 Kcal/mole
 H     -1.8639886009     3.6823655965    -0.7762730123
 F     -1.2381973038     3.9598131036    -1.3864345755
 H     -3.9617004314     3.8814322912    -0.0491721467
 F     -3.2430737644     3.3511137238     0.1587387248
          4
Energy: -6.326543791673373 Kcal/mole
 H     -1.8517917719     4.0011518536    -0.3556457263
 F     -1.0990964413     4.1936533886    -0.8427616245
 H     -3.3206682279     2.4381134891     0.3413218092
 F     -3.1868857714     3.3388049942     0.4497010832
          4
Energy: -6.3159694608864925 Kcal/mole
 H     -2.2320213323     4.6968454071    -0.5288506670
 F     -1.5450348987     4.8082801949    -1.1259444017
 H     -3.0470860615     3.4997850111     1.2098743271
 F     -3.2928873091     4.2447838108     0.7350611691
          4
Energy: -6.322953575280565 Kcal/mole
 H     -1.9156725338     4.9116949712    -0.2089618440
 F     -1.5359724849     5.2614845710    -0.9668299781
 H     -3.6163977307     4.9750846152     1.2285938690
 F     -2.8495482053     4.4796861990     1.1425054572
          4
Energy: -6.316507321288043 Kcal/mole
 H     -2.4843356015     4.5544484106    -0.6407624373
 F     -1.9550549664     4.8921016791    -1.3091495105
 H     -3.6721881990     5.0910827306     1.1254550439
 F     -3.4991970065     4.3000243043     0.6951184156
          4
Energy: -6.325050644781243 Kcal/mole
 H     -2.1870958729     4.3960149026    -0.6146158784
 F     -1.9851379641     4.6500940297    -1.4722555465
 H     -3.7835081896     4.1171343396     0.9764683727
 F     -2.8775557481     4.0032796442     0.8917554340
          4
Energy: -6.31681442582186 Kcal/mole
 H     -2.9684323016     4.6181512620    -0.5835438016
 F     -2.5893133356     4.6863904031    -1.4157103890
 H     -2.7935490163     4.0858787339     1.6324006331
 F     -3.4113376587     4.4252621942     1.0458470889
          4
Energy: -6.3245751563108 Kcal/mole
 H     -2.6506326195     4.9093861582    -0.4629694776
 F     -2.5169344588     5.0680075746    -1.3561956797
 H     -2.4610372032     3.4184230058     1.1797712960
 F     -2.7728395042     4.2769429690     1.0984583328
          4
Energy: -6.324059370963482 Kcal/mole
 H     -1.9154066247     4.8180623030    -0.4951182427
 F     -1.8537087287     5.0997731157    -1.3655901766
 H     -3.2689100627     4.2311027816     1.1743499011
 F     -2.3630033037     4.2809165716     1.0411563186
          4
Energy: -6.321297365772182 Kcal/mole
 H     -1.6765465541     4.5621111849    -0.4184849996
 F     -1.8066508530     4.3981641524    -1.3112801844
 H     -2.6999872006     5.0380882975     1.4903046496
 F     -1.8312912049     4.8797705080     1.2429349978
          4
Energy: -6.32002171440422 Kcal/mole
 H     -1.6759296918     4.6074102610    -0.6022563393
 F     -1.9492238993     4.2029257018    -1.3785240235
 H     -1.6672730960     4.4535152183     1.6129952430
 F     -1.3111155771     5.0333312879     0.9982968234
          4
Energy: -6.309291299086624 Kcal/mole
 H     -1.8147120063     4.4620601441    -0.5514817575
 F     -2.1640468730     4.3184730937    -1.3870874718
 H     -1.9652755222     5.6051293282     1.4469106086
 F     -1.4307547626     4.9810575584     1.0398344686
          4
Energy: -6.322468500040998 Kcal/mole
 H     -1.9836607526     4.9968891845    -0.7009840027
 F     -2.2818999422     4.6594040424    -1.4997619221
 H     -1.0708373160     4.6326101557     1.3562186701
 F     -1.3660096651     5.3350188710     0.8459400394
          4
Energy: -6.32518019317871 Kcal/mole
 H     -1.6967082299     4.7518825445    -0.7986913219
 F     -2.2604037233     4.4647524864    -1.4625382324
 H     -1.4784854814     5.9971200800     1.0397486157
 F     -0.9245473451     5.4705531606     0.5330250023
          4
Energy: -6.323274046241522 Kcal/mole
 H     -1.7327631573     4.3977901753    -0.5359355669
 F     -2.2423849153     3.9630805770    -1.1621960789
 H     -1.6868616429     5.8320903096     1.1700331668
 F     -1.0682587240     5.3243232075     0.7223815179
          4
Energy: -6.3236291822407225 Kcal/mole
 H     -1.7861430939     4.2089772456    -0.3079861822
 F     -2.1286104268     3.4734800485    -0.7353607239
 H     -0.0083845240     5.0655970908     0.6888882152
 F     -0.8505402690     5.3696471409     0.4908572373
          4
Energy: -6.312906776759348 Kcal/mole
 H     -1.4047535333     4.3040509888    -0.7039448483
 F     -1.9098909635     3.6129849461    -1.0328109324
 H     -0.3136019240     5.3354426823     1.0323702528
 F     -0.4854755158     5.4491236798     0.1388238918
          4
Energy: -6.3240126151316645 Kcal/mole
 H     -1.1145778903     4.1298393331    -0.6661756831
 F     -1.5308658519     3.3850820518    -1.0022261630
 H     -1.1375591517     5.6993932985     0.9143689497
 F     -0.5890667530     5.4869006730     0.2108833617
          4
Energy: -6.321529282795211 Kcal/mole
 H     -1.2520101718     4.3196215694    -0.7652681336
 F     -1.5130938103     3.5501780904    -1.1903340887
 H      0.2872775684     5.2178139956     0.5873056581
 F     -0.4538350340     5.5211769473     0.1405260368
          4
Energy: -6.326223945235654 Kcal/mole
 H     -1.4716741422     4.0799477840    -0.3651468806
 F     -1.7618094643     3.4364823758    -0.9505209177
 H     -0.4789382553     6.0868600173    -0.1256424116
 F     -0.8298072917     5.4461007372     0.4286205804
          4
Energy: -6.321431852886576 Kcal/mole
 H     -1.4130528406     4.4052198754    -0.7726129932
 F     -1.5007257425     3.6095061790    -1.2198737401
 H     -0.1540661467     5.6918288810     0.6111712226
 F     -0.9414106002     5.7652294126     0.1468544413
          4
Energy: -6.327106563977964 Kcal/mole
 H     -1.4664763741     4.1882258065    -0.4907948350
 F     -1.6664476372     3.4169160742    -0.9446470032
 H     -1.5902295029     6.4325218570    -0.4637721130
 F     -1.2485254177     5.7719643543     0.0726895387
          4
Energy: -6.32042478741613 Kcal/mole
 H     -1.3817151887     3.9844813279    -0.5034357260
 F     -1.8428820382     3.2385909647    -0.7715060582
 H     -1.4760383603     6.1071952545     0.2414986493
 F     -0.8160550745     5.4995397414     0.0515885656
          4
Energy: -6.323899389939697 Kcal/mole
 H     -1.8215279527     4.2479346567    -0.4046205043
 F     -2.2471984797     3.6462987587    -0.9502649386
 H     -0.6602461111     6.1712274323    -0.2044036347
 F     -0.9891153802     5.5219978539     0.3534807247
          4
Energy: -6.3217917270475255 Kcal/mole
 H     -1.7217748859     4.3141510381    -0.5731837172
 F     -2.2198103265     3.6496943318    -0.9622171159
 H     -1.4987116963     5.7828766971     1.0876214441
 F     -1.0204446443     5.5511334914     0.3403298588
          4
Energy: -6.324631588779027 Kcal/mole
 H     -1.6992811392     4.3475283913    -0.5210275559
 F     -2.1018595168     3.6656198152    -0.9834346748
 H     -1.1110805081     6.4925843390    -0.5509275210
 F     -1.0566502440     5.8033093211     0.0514231211
          4
Energy: -6.322050190765367 Kcal/mole
 H     -1.8209731522     4.5971316856    -0.8039597246
 F     -2.2856542003     3.8977094835    -1.1724283213
 H      0.1410134363     5.2361742812     0.0323084057
 F     -0.6636815650     5.6424347995    -0.1359394656
          4
Energy: -6.325145207194055 Kcal/mole
 H     -1.5210447035     4.5145968915    -0.9293986993
 F     -1.9977361499     3.7977808931    -1.2453561164
 H     -0.6295106861     5.5687574596     0.8572694980
 F     -0.6628456132     5.6874422185    -0.0514063027
          4
Energy: -6.326110584187404 Kcal/mole
 H     -1.3792256814     4.5410732658    -1.1120126122
 F     -1.5739768891     3.8253798321    -1.6512193222
 H     -0.3189677164     5.2906497391     0.7341014753
 F     -0.8309067287     5.6441431412     0.0604176752
          4
Energy: -6.320014041850698 Kcal/mole
 H     -1.3497653564     4.3278415331    -0.8970132110
 F     -1.8451902928     3.7128518187    -1.3630934440
 H     -1.3339053221     6.0287247678     0.5438537799
 F     -0.7170056554     5.5676604453     0.0461154031
          4
Energy: -6.325516629208153 Kcal/mole
 H     -1.6226584166     4.4533414490    -0.9539222714
 F     -1.7808094956     3.7784923436    -1.5543020856
 H     -0.2369575285     5.3358565382     0.5568644222
 F     -1.0525857114     5.5494859487     0.1963063240
          4
Energy: -6.318879017177892 Kcal/mole
 H     -1.5842891346     4.4172772465    -1.0042761763
 F     -1.7051894506     3.7162130436    -1.5828788872
 H     -0.3513868993     5.3927018856     0.6243244421
 F     -1.1054763808     5.5661925225     0.1322481748
          4
Energy: -6.325227695552201 Kcal/mole
 H     -1.6518640378     4.4703766659    -1.0215661729
 F     -1.8018790835     3.7981015276    -1.6269013070
 H     -0.2370561279     5.4658282873     0.4262631347
 F     -1.0898863709     5.5974523077     0.1160298454
          4
Energy: -6.3233933113222065 Kcal/mole
 H     -1.7964000314     4.5318122967    -0.9965858891
 F     -1.9878697820     3.8820548265    -1.6146826165
 H     -0.2478709078     5.5181216632     0.3352098039
 F     -1.1418903380     5.5982747084     0.1476098362
          4
Energy: -6.325234578582638 Kcal/mole
 H     -1.8900587119     4.4607808244    -1.0228165391
 F     -1.9941430199     3.8018427178    -1.6519874447
 H     -0.4880512821     5.4625301378     0.4006591406
 F     -1.3595327346     5.5744646641     0.1382096412
          4
Energy: -6.325702615883699 Kcal/mole
 H     -1.9407450882     4.4810604136    -1.0080270753
 F     -2.0955622427     4.0221842909    -1.7867140166
 H     -0.6460398813     5.9818614530     0.0446577068
 F     -1.3676544197     5.4574562564     0.2571680538
          4
Energy: -6.324068582228847 Kcal/mole
 H     -1.5064552877     4.5564609085    -1.1592901342
 F     -1.7471045147     4.2356809041    -1.9839580300
 H     -1.6698446871     6.2779498749     0.2799756700
 F     -1.2576756166     5.4588548929     0.2705380967
          4
Energy: -6.326881870075908 Kcal/mole
 H     -1.4655072097     4.5852778972    -1.1570176380
 F     -1.6964133185     4.1657868138    -1.9390653347
 H     -1.9095498646     6.2110955387     0.3264659016
 F     -1.2850423015     5.5474411955     0.2242787382
          4
Energy: -6.326427939700238 Kcal/mole
 H     -1.4161074197     4.5066947971    -1.1175586122
 F     -1.5601230246     4.1219364915    -1.9373814906
 H     -1.1533165159     6.4012191333     0.0468013784
 F     -1.1614304036     5.5011687486     0.2221081661
          4
Energy: -6.327199940168157 Kcal/mole
 H     -1.5000656845     4.5784349708    -1.1615290530
 F     -1.5689986447     4.1890665431    -1.9888920171
 H     -0.5385892057     6.1717391596     0.0793953697
 F     -1.1595634851     5.5102451552     0.2124578603
          4
Energy: -6.326846366762368 Kcal/mole
 H     -1.3881267835     4.6234833970    -1.1949510857
 F     -1.6055271161     4.2620243333    -2.0091828958
 H     -1.0580762592     6.4836458950     0.0226810223
 F     -1.0384701288     5.5775292568     0.1621702250
          4
Energy: -6.326713544672373 Kcal/mole
 H     -1.3454483647     4.6180376978    -1.2315261189
 F     -1.6562152431     4.2472095274    -2.0104994274
 H     -1.5987007268     6.2317054606     0.3288466628
 F     -1.0329510840     5.5277658429     0.1698329645
          4
Energy: -6.326727412422201 Kcal/mole
 H     -1.3351650248     4.6943603456    -1.2784201000
 F     -1.6473764596     4.2427637366    -2.0129087130
 H     -1.8121798814     5.5473229051     0.7251586372
 F     -1.0726569803     5.5013998541     0.1848939316
          4
Energy: -6.327020129589357 Kcal/mole
 H     -1.2906765931     4.6927361523    -1.3146340764
 F     -1.6048779400     4.2155063408    -2.0318636217
 H     -1.6803484497     5.3321822366     0.7921663155
 F     -1.0227531528     5.4699712427     0.1680897054
          4
Energy: -6.326548394034489 Kcal/mole
 H     -1.4119251197     4.7410637387    -1.3118960654
 F     -1.5499863266     4.1708250809    -2.0166342978
 H     -1.0132994713     4.9411533716     0.8723052398
 F     -1.1307463425     5.5105387534     0.1631539729
          4
Energy: -6.325359647135144 Kcal/mole
 H     -1.5077666393     4.7391503234    -1.2866895271
 F     -1.5781058459     4.1921193300    -2.0192866117
 H     -0.4222649126     5.2163915514     0.5999110358
 F     -1.1390855567     5.5597086351     0.1425375077
          4
Energy: -6.3262603441746705 Kcal/mole
 H     -1.3158573351     4.7327584169    -1.3330859592
 F     -1.5963067597     4.2150220937    -2.0360697569
 H     -1.6798132445     5.3546153770     0.7955795071
 F     -1.0701568709     5.5380719826     0.1356160383
          4
Energy: -6.326481582925794 Kcal/mole
 H     -1.3076517813     4.6011253490    -1.2597815572
 F     -1.6094754608     4.1445415389    -1.9955279067
 H     -1.8564043390     5.9068023223     0.4741088326
 F     -1.0884852456     5.5236100487     0.1510717645
          4
Energy: -6.327611830409353 Kcal/mole
 H     -1.3768815752     4.5729485571    -1.2119287250
 F     -1.6299988012     4.1654525661    -1.9934449995
 H     -1.8082023875     6.1874617319     0.2875850045
 F     -1.1851239029     5.5229389436     0.1823630200
          4
Energy: -6.326436204681045 Kcal/mole
 H     -1.3663667440     4.5835861724    -1.2282008866
 F     -1.6336004876     4.1625929746    -1.9977721008
 H     -1.9058002567     6.1174888129     0.2979877162
 F     -1.1999576532     5.5488872603     0.1588205738
          4
Energy: -6.327408186246203 Kcal/mole
 H     -1.3776493625     4.5957492284    -1.2290542187
 F     -1.6558290527     4.1416115376    -1.9755554028
 H     -1.9604492787     5.9976080523     0.4031236144
 F     -1.1970586489     5.5552466577     0.1532433574
          4
Energy: -6.327344599469541 Kcal/mole
 H     -1.3779040213     4.5951293430    -1.2285826847
 F     -1.6558155436     4.1416444211    -1.9755804165
 H     -1.9523892131     6.0095356686     0.4061756526
 F     -1.1974862167     5.5546139252     0.1530814538
          4
Energy: -6.327333750219225 Kcal/mole
 H     -1.3541209521     4.6138510395    -1.2447378299
 F     -1.6290035951     4.1452103037    -1.9834559042
 H     -1.9881442847     5.9030119328     0.4589412033
 F     -1.1955894928     5.5602647632     0.1502823632
          4
Energy: -6.327801149646405 Kcal/mole
 H     -1.3626729533     4.6036212032    -1.2352565747
 F     -1.6285499312     4.1457529728    -1.9839588629
 H     -1.9599332366     5.9953616621     0.4249529050
 F     -1.1973387827     5.5623361362     0.1569462019
          4
Energy: -6.3278418456577015 Kcal/mole
 H     -1.3633326667     4.6039913475    -1.2352490631
 F     -1.6285149349     4.1457333375    -1.9839592613
 H     -1.9589071247     5.9996595936     0.4208570362
 F     -1.1973932156     5.5621081409     0.1571634783
