          4
Energy: -5.917561315139551 Kcal/mole
 H      0.3057821767    -6.4105793347    -3.5908720659
 F     -0.5773452902    -6.2174791739    -3.4369655845
 H     -1.1830259374    -5.6355988162    -5.0092777029
 F     -1.3080372781    -5.2356746417    -5.8249503206
          4
Energy: -5.095701626096599 Kcal/mole
 H      3.6263428941     1.0026329611     0.7204837051
 F      4.0472181965     1.2087914223     1.5086789022
 H      2.7842523136     0.9703580186    -1.9256092540
 F      3.2421971392     0.6456149394    -1.2005454849
          4
Energy: -6.223287831242317 Kcal/mole
 H      6.0498301131     1.9464444333    -7.4654028288
 F      5.9130668341     2.8527862823    -7.4383980442
 H      7.2869622319     0.3307588455    -6.7704173816
 F      6.6244058683     0.3960461582    -7.4010088753
          4
Energy: -4.835782599182892 Kcal/mole
 H      0.6586046566     1.4381626901    -1.5960301154
 F     -0.1955193657     1.1047586892    -1.6102753515
 H     -0.5071910897     0.2610982142    -0.0303198621
 F     -0.7449261933     0.3032574356     0.8543233544
          4
Energy: -5.835850193787138 Kcal/mole
 H     -3.3125615466     3.9397392662    -3.1393287372
 F     -3.4802687954     4.7518321969    -3.5308237572
 H     -3.1750348262     2.3334480484    -1.1291771312
 F     -3.0691928898     2.6476542652    -1.9841396671
          4
Energy: -5.70318003157675 Kcal/mole
 H      0.7214164399    -3.7396025188     0.2585567247
 F      0.9648020839    -2.9111528511     0.5673018887
 H      0.3996800675    -5.6243549125    -1.4865144530
 F      0.6648020686    -5.3133111047    -0.6656301286
          4
Energy: -5.800514337346158 Kcal/mole
 H      4.0526830137    -5.7941488953    -2.9287881930
 F      4.3848373903    -6.6187556924    -3.1537017328
 H      5.1567013494    -3.7177846300    -2.9370050829
 F      4.2832831662    -3.9370720926    -2.7639655325
          4
Energy: -3.444678357688133 Kcal/mole
 H      3.8909429331    -2.0030085149     6.2131376998
 F      4.5752028098    -1.8614348348     6.8069679064
 H      6.1668875329    -1.7220115308     5.5711624094
 F      6.2928641248    -1.0929534650     4.9159488197
          4
Energy: -3.1770935678278818 Kcal/mole
 H     -2.5285928094     5.6411468955    -2.9060204524
 F     -2.4790834728     6.5159075076    -3.1766340092
 H     -3.3583171299     4.6997682421     0.0689044838
 F     -2.8980755761     4.5548129860    -0.7108741296
          4
Energy: -4.8730491331388635 Kcal/mole
 H     -5.6016797573     3.3424042370    -5.0189780229
 F     -5.6808427842     4.1496138640    -5.4468037272
 H     -3.8159012516     3.6600547666    -5.3368288406
 F     -3.4676874719     2.9375222802    -4.8923257813
          4
Energy: 0.009144916402902936 Kcal/mole
 H     -7.0599114325     5.1489146204     5.9253097896
 F     -6.5138402277     5.8590160777     5.7292201173
 H      5.4838698853    -5.5440295956     6.7976361398
 F      6.3261474486    -5.7061073430     6.4733086662
          4
Energy: -5.386366750120743 Kcal/mole
 H      2.5985227561    -2.5618400362     4.0501544928
 F      2.9384097130    -2.2104601512     4.8259753696
 H      1.5974040173    -3.0915391435     1.5123287584
 F      1.8884626103    -3.3017233033     2.3561276174
          4
Energy: -5.761831666345358 Kcal/mole
 H      1.7349134205    -6.7781267933    -5.2573078464
 F      1.1298441713    -6.1283994165    -5.4867300325
 H      0.1749479115    -5.2801334500    -4.3394847403
 F     -0.1309840769    -5.1215917824    -3.4896852591
          4
Energy: -5.038574250594365 Kcal/mole
 H      7.4041554557     2.5906149981     1.0266019755
 F      6.8491742796     2.9966525742     0.4199567901
 H      6.8874015477     1.1652305310    -0.0554447925
 F      7.3139548531     0.4484027645     0.3254741369
          4
Energy: -4.351947989588581 Kcal/mole
 H      5.4972736221     5.1293735737    -5.7418078199
 F      5.2007006353     4.9621805893    -4.8903502640
 H      3.4879468077     5.7509216252    -6.1824746702
 F      3.6827841644     6.0044716038    -7.0419162405
          4
Energy: -5.289545853660911 Kcal/mole
 H     -7.0817660172     0.0463153774     6.8029846487
 F     -7.1761245455     0.8907824420     7.1477466608
 H     -6.6795541263    -1.7716016088     5.6185481221
 F     -7.1156342388    -1.6559448155     6.4168880507
          4
Energy: -5.135918937007233 Kcal/mole
 H     -1.3329144748    -2.4654852995    -0.8860872129
 F     -1.8869756810    -3.1878657385    -0.7762160105
 H     -3.7259776451    -3.1547977215    -0.0661392242
 F     -4.3762725197    -3.0749475841     0.5754443882
          4
Energy: -5.981686658218621 Kcal/mole
 H      2.0134211085    -6.0795949326    -4.3217052776
 F      1.5782566066    -6.7485516904    -3.8700220784
 H      3.1409782156    -4.7816922279    -5.8713658771
 F      2.7379726730    -4.7799464383    -5.0476714648
          4
Energy: -5.616433780418902 Kcal/mole
 H     -4.4646894977     5.8356081266    -1.3657756928
 F     -5.0888390546     5.4555355213    -0.8118161769
 H     -3.1134811916     5.6802568386    -2.9756536520
 F     -3.2376729390     6.4435673455    -2.4828834419
          4
Energy: -5.630046645339576 Kcal/mole
 H     -6.4689250597    -4.9497533715    -0.7933133951
 F     -6.1497708404    -5.7540073089    -1.0969664677
 H     -6.7066054995    -2.9158014121     0.7274283414
 F     -6.5446437651    -3.2951859836    -0.0915495237
          4
Energy: -5.89422031609314 Kcal/mole
 H      1.7866326487     2.4230358589    -6.9804433799
 F      1.8653546092     1.5108292320    -6.9297391118
 H      0.9671645080    -0.0255304356    -6.9204357555
 F      0.3028801438    -0.6576234144    -6.9290235105
          4
Energy: -6.011583368885226 Kcal/mole
 H     -3.3932906021     0.1767243497    -5.8157896832
 F     -4.1406385374     0.0291146725    -6.3262516767
 H     -1.5172038798    -0.7215970982    -4.5670782071
 F     -1.8672832717    -0.0061016237    -5.0213904844
          4
Energy: -6.080859693041674 Kcal/mole
 H     -1.2353959555     4.4801150544    -2.3872469886
 F     -1.4539070433     3.6450348863    -2.6967353039
 H      0.2034583961     6.1850273101    -1.4218910995
 F     -0.6616969962     5.9095690941    -1.5504131539
          4
Energy: -5.989289571352629 Kcal/mole
 H     -6.8151848862     7.0045541699     6.0750652507
 F     -6.9645244517     7.0470506380     6.9788244799
 H     -5.6460539260     5.6410601383     4.5889130137
 F     -6.1980887502     6.3613619931     4.4573387345
          4
Energy: -5.3167691919615265 Kcal/mole
 H     -1.3078948138     4.3664643715    -3.5108899426
 F     -0.9365651819     4.1914225210    -4.3308677808
 H     -3.1990388684     4.4216142691    -1.8147056664
 F     -2.5889867139     4.9360061534    -2.2665091171
          4
Energy: -5.7291189836412855 Kcal/mole
 H     -0.5137882794    -0.2127963758    -3.8788936131
 F      0.3398020697    -0.4144502841    -4.1464907305
 H     -2.3769663396     1.1129212080    -4.6702914266
 F     -2.1231773756     0.4316128027    -4.1114542243
          4
Energy: -5.670126863279222 Kcal/mole
 H      2.4130236709    -4.2362636465    -3.9567112339
 F      3.1109214391    -3.6655363096    -3.7890866175
 H      3.3824072002    -2.9964760722    -2.2544604004
 F      3.6995627036    -2.5879994109    -1.4971967714
          4
Energy: -5.63533007587921 Kcal/mole
 H     -2.3948068241    -5.0888825837     2.5663080938
 F     -2.5247879998    -4.5720027472     3.3125179359
 H     -2.2825431734    -6.1198357278     0.5115151503
 F     -2.1614999437    -6.3272255598     1.3965162769
          4
Energy: -5.9943896364594025 Kcal/mole
 H      4.1931545733    -0.6334984881    -6.8614054665
 F      4.1996172627    -1.5105016914    -7.1291975781
 H      4.6620372223    -2.8490702678    -6.3379722819
 F      5.0130209648    -3.5200397342    -5.8207688523
          4
Energy: -5.589197552119231 Kcal/mole
 H      5.6987973171     3.2852450328     2.1862901977
 F      5.7032879027     2.6246787326     1.5502705457
 H      6.5171772853     0.8809941536     1.7372981818
 F      6.7962970948     0.0643002655     2.0471243024
          4
Energy: -6.132541889056142 Kcal/mole
 H     -1.6404591392    -5.7561466096    -4.6613764179
 F     -1.2568690903    -6.5396892911    -4.9438804721
 H      0.3900314554    -6.3934922320    -5.4750348678
 F      1.2767610485    -6.1708530329    -5.5459673410
          4
Energy: -5.090363795450912 Kcal/mole
 H     -2.4723651679     4.3001568545    -2.9462344945
 F     -1.8071609792     3.7177183305    -3.1894581634
 H     -1.2241404224     3.1688384393    -4.9921819452
 F     -0.9866229687     2.6956216719    -5.7408743722
          4
Energy: -6.122674507042518 Kcal/mole
 H      3.7696627917     3.4884802687     3.4426798453
 F      4.0932815701     2.6357493209     3.5375999007
 H      2.7262310744     4.8964606036     1.9441523231
 F      2.8759827915     4.9013700950     2.8488286852
          4
Energy: -5.620775365168072 Kcal/mole
 H      2.1378639874    -2.8803678649    -3.5012526416
 F      1.9688920266    -3.3061058684    -2.7068442902
 H      1.4313760780    -1.1702138267    -4.0644576953
 F      2.0455482851    -1.6575285640    -4.5400687200
          4
Energy: -6.16068201504811 Kcal/mole
 H      0.7644036039    -4.9984497318    -3.4664559821
 F      0.4624026010    -4.6401294992    -2.6782358319
 H      1.0646400545    -6.5133284953    -5.1662370691
 F      1.2815169945    -5.6678603003    -4.8851020051
          4
Energy: -6.147408511943411 Kcal/mole
 H      6.9846103676     5.7324277853    -2.8816545321
 F      6.5603440286     5.5083480811    -3.6631117349
 H      5.0525959213     4.6554497866    -3.4478773543
 F      4.3751049374     4.2461628792    -2.9848663454
          4
Energy: -6.037293054686359 Kcal/mole
 H      2.1530324590     4.5070732966    -2.6616970938
 F      2.0548770764     4.0088886504    -3.4252850580
 H      0.8385414879     2.9930720125    -4.0034751100
 F      0.2372027870     2.3492213600    -4.2579099823
          4
Energy: -6.293844212994429 Kcal/mole
 H     -3.0732566609     0.7524598532     3.2797992594
 F     -2.4150680469     0.7164796814     3.9172803773
 H     -2.0289122863    -0.8467170426     4.5340624868
 F     -1.9180385767    -1.7419720846     4.6987270864
          4
Energy: -6.1704898207767656 Kcal/mole
 H     -2.7268403967    -2.2591993140     1.9994338679
 F     -2.7561346590    -2.2073830868     2.9144999446
 H     -3.6356026688    -1.0931165580     3.7455946610
 F     -4.2107990203    -0.4850343600     4.1201266326
          4
Energy: -6.022184174144911 Kcal/mole
 H     -3.6190834706    -3.8740739896     5.9739823655
 F     -3.7798788144    -4.4010991623     5.2409896474
 H     -5.5398144212    -4.6990584399     5.0225840859
 F     -6.4513046226    -4.7948868623     4.9927256494
          4
Energy: -6.225813687057524 Kcal/mole
 H      1.4289963000    -2.8193597840    -6.8194263117
 F      1.3716939284    -2.9890092971    -5.9200796150
 H      2.2399632881    -4.3021232414    -5.1542391864
 F      2.8180875510    -4.9668876593    -4.8997797489
          4
Energy: -6.177943675719689 Kcal/mole
 H      5.6158596313    -5.9202351753    -3.3953935225
 F      5.2505762049    -5.1981375527    -2.9640792036
 H      4.6238732699    -3.6590155516    -3.4567567629
 F      4.3232015661    -2.8645839952    -3.8022477596
          4
Energy: -5.98014099662322 Kcal/mole
 H      1.7363443760    -5.7791641659    -1.9780357138
 F      1.5791555894    -4.9061858916    -1.7454639659
 H      0.5275172252    -3.6832789607    -1.0792798976
 F     -0.0093965624    -3.0217936167    -0.7400900919
          4
Energy: -6.2592162666249465 Kcal/mole
 H     -3.7736937348    -1.8715914450     2.6748677867
 F     -4.0240576203    -1.6236281081     3.5214616140
 H     -2.8287333016    -1.9463428506     4.7527642235
 F     -2.0513046143    -2.1916009200     5.1726953079
          4
Energy: -6.268736693908522 Kcal/mole
 H     -2.1089799239    -1.2117149908     3.8212765415
 F     -1.6424510579    -1.5102840739     4.5520954793
 H     -0.1410167267    -0.8962874475     4.9062500073
 F      0.6689321301    -0.4829997056     5.0248463468
          4
Energy: -6.275963557518708 Kcal/mole
 H      2.1998960872     6.0868751289     2.7665897239
 F      1.3689431122     6.1365422202     2.3819608986
 H      0.1439285083     6.7149568369     3.3798597010
 F     -0.3420409609     7.1081833976     4.0507513070
          4
Energy: -6.277662035864807 Kcal/mole
 H     -0.1284307943     5.1822881609     3.4856202801
 F     -1.0104275799     4.9861380045     3.6421315781
 H     -2.0192091464     6.1898395057     4.4109491823
 F     -2.3955954729     6.9232470465     4.8126153525
          4
Energy: -6.297156440134984 Kcal/mole
 H     -4.6176719524     5.9164294205     7.1777244339
 F     -4.1970492861     6.2607093487     6.4391874317
 H     -2.5283553570     6.5885172512     6.5434388701
 F     -1.6464147060     6.6486573771     6.7872684279
          4
Energy: -6.306668606659571 Kcal/mole
 H     -3.0083360358     5.5412586320     5.3286707274
 F     -3.4229061896     6.0171902537     5.9938847373
 H     -2.2948568983     6.7974053506     6.9703175349
 F     -1.5230796423     7.1090000736     7.3552299871
          4
Energy: -6.327941091058676 Kcal/mole
 H     -3.0622724550     5.5055614117     5.2829539247
 F     -3.4081822004     5.9970222259     5.9755589465
 H     -2.2516884130     6.7658162217     6.9459381849
 F     -1.5030745906     7.1024742036     7.3547507926
