          4
Energy: -6.322598186186497 Kcal/mole
 H     -1.6102340394     4.7756008503    -1.2671529412
 F     -1.7795139754     4.1113166749    -1.8762176649
 H     -1.1676127227     5.2027858045     0.8797382735
 F     -1.2844387074     5.6975787044     0.1165733664
          4
Energy: -6.3263613976714055 Kcal/mole
 H     -1.6119378046     4.6450804370    -1.1179024970
 F     -2.0659067859     4.0507078874    -1.6484893761
 H     -1.7056196562     5.9513416335     0.7082099113
 F     -1.0839887379     5.7524105409     0.0640900296
          4
Energy: -6.322926291818078 Kcal/mole
 H     -1.4061755606     4.4803650496    -1.0672025807
 F     -1.8210272026     4.0657077495    -1.7720759300
 H     -1.1434762229     6.4207156822     0.0145942930
 F     -0.8465730814     5.5597302524     0.1215597749
          4
Energy: -6.325860668504788 Kcal/mole
 H     -1.4334777271     4.7794938162    -1.3925723787
 F     -1.8916225368     4.2654059411    -1.9981349188
 H     -1.2270636940     5.3791467475     0.7542762228
 F     -0.8062030071     5.5912891829    -0.0323373223
          4
Energy: -6.325859155045748 Kcal/mole
 H     -1.6347249582     4.7237560010    -1.3148148883
 F     -1.8304391033     4.0438176917    -1.8981405855
 H     -0.3010034670     5.4656542015     0.3496651564
 F     -1.0304823333     5.7696400020    -0.1154608661
          4
Energy: -6.323462807663077 Kcal/mole
 H     -1.6216534428     4.7086666305    -1.3087167388
 F     -1.9694866055     3.9949917937    -1.7675950649
 H     -0.3573236407     5.3679956325     0.4312860630
 F     -0.8275821654     5.7626550450    -0.2498819545
          4
Energy: -6.327448254405624 Kcal/mole
 H     -1.5398158455     4.6353470490    -1.3457450225
 F     -1.9334175609     3.9714363993    -1.8409109935
 H     -0.8520605311     5.2937959554     0.6773904442
 F     -0.8559962726     5.6485274050    -0.1682094071
          4
Energy: -6.323692767584987 Kcal/mole
 H     -1.5572227057     4.5148143442    -1.2132423733
 F     -2.1103646668     4.0314759621    -1.7621567375
 H     -1.1342522767     6.5038548410    -0.2176338215
 F     -0.7686518722     5.6632778597    -0.2432401219
          4
Energy: -6.327043164549309 Kcal/mole
 H     -1.7938586142     4.2826973118    -0.7718498480
 F     -2.2242184454     3.6831999736    -1.3161680980
 H     -0.8223574594     6.3007518213    -0.6053527845
 F     -1.0001197968     5.5938460969    -0.0489591755
          4
Energy: -6.324315839395069 Kcal/mole
 H     -1.7577160741     4.2906859749    -0.7957960821
 F     -2.4281920505     3.7780741959    -1.1543767969
 H     -1.1615920926     6.2523038401     0.1042497621
 F     -0.7411073398     5.4701406812    -0.1244473425
          4
Energy: -6.319214000178533 Kcal/mole
 H     -1.8208683559     4.4399232460    -1.0911817671
 F     -2.4664704262     3.8316889511    -1.3238575272
 H     -1.2044254600     6.0196622363     0.3973491944
 F     -0.8416992978     5.6223080173    -0.3452330272
          4
Energy: -6.322279287194306 Kcal/mole
 H     -1.7515387044     4.2855002757    -0.8613890747
 F     -2.4065754299     3.7053407642    -1.1356714647
 H     -1.2291214683     6.2655685836     0.0525351172
 F     -0.7787594080     5.5507794274    -0.3040311133
          4
Energy: -6.324669734927568 Kcal/mole
 H     -1.5838557972     4.1590334908    -0.6711891642
 F     -2.1879793055     3.5589960558    -1.0115990103
 H     -1.1945548677     6.3184719136    -0.1489084293
 F     -0.7372750503     5.5252693306    -0.0977827917
          4
Energy: -6.326728551258725 Kcal/mole
 H     -1.6112257715     4.1216292146    -0.6383375650
 F     -2.2775724825     3.5718026266    -0.9458465629
 H     -0.9151830364     6.2372663033    -0.2667257281
 F     -0.5880045068     5.3874675248    -0.1586274120
          4
Energy: -6.327644427921939 Kcal/mole
 H     -1.7833571890     4.3610336700    -0.9237565981
 F     -2.4148920292     3.7107295542    -1.0621665060
 H     -0.8415094770     5.7668087620     0.5386417196
 F     -0.7389355683     5.5660852167    -0.3502214035
          4
Energy: -6.324725355930866 Kcal/mole
 H     -1.8168705091     4.4747287856    -0.9816951325
 F     -2.4772498196     3.8789777278    -1.2050084626
 H     -0.4959740000     5.1805767615     0.6597129391
 F     -0.6152018898     5.4044347962    -0.2215142112
          4
Energy: -6.3252935579154155 Kcal/mole
 H     -1.6854142191     4.3596025123    -1.0353788559
 F     -2.3154712118     3.7319772171    -1.2589938706
 H     -0.7811441664     5.5654530136     0.6134720638
 F     -0.6552020514     5.4689713708    -0.2896995014
          4
Energy: -6.326228902167713 Kcal/mole
 H     -1.7885685958     4.3710679297    -0.9677920793
 F     -2.2525557874     3.6838745412    -1.3594170693
 H      0.2171515381     5.3448701199    -0.7309046503
 F     -0.6333551661     5.4972797803    -0.4238238118
          4
Energy: -6.3243613612122545 Kcal/mole
 H     -1.7910462329     4.4114979393    -1.0350046543
 F     -2.1691719485     3.6543180167    -1.3879756275
 H      0.1219961006     5.4194938459    -0.4666275360
 F     -0.7723281736     5.6201094826    -0.4378793371
          4
Energy: -6.3243789147283 Kcal/mole
 H     -1.8919983260     4.4997368040    -1.0474483807
 F     -2.3270944007     3.8614131438    -1.5415367438
 H     -0.3228329515     6.1029270415    -1.0287740875
 F     -0.9145678412     5.7308934574    -0.4352003071
          4
Energy: -6.322984211275525 Kcal/mole
 H     -1.6160928154     4.5003977372    -1.2027538117
 F     -2.1081956371     3.7860077419    -1.5000259895
 H     -1.4079290549     6.2509523129     0.1963712737
 F     -0.9200082540     5.8610703278    -0.4750558107
          4
Energy: -6.325795687616846 Kcal/mole
 H     -1.7329154837     4.6215025430    -1.1634103754
 F     -2.1708201186     3.9914945815    -1.6656239745
 H     -0.9479656500     6.7019093641    -1.0812892356
 F     -0.9590538365     5.9764208603    -0.5205464399
          4
Energy: -6.323745635396108 Kcal/mole
 H     -1.9079647649     4.7656449315    -1.3389591716
 F     -2.2758682584     4.0625479748    -1.7985140530
 H     -0.2700894291     6.2851665217    -1.1897483780
 F     -1.0122889871     6.0584142302    -0.7012688857
          4
Energy: -6.327164974060565 Kcal/mole
 H     -1.9045809723     4.7853993475    -1.4311272346
 F     -2.1822930799     4.0820434487    -1.9498328013
 H     -0.6367444779     6.6360516209    -1.2943299807
 F     -1.2053198609     6.1677078624    -0.7481934065
          4
Energy: -6.324457764639249 Kcal/mole
 H     -2.0392540302     4.7543637727    -1.3623897671
 F     -2.3739940553     4.1207512689    -1.9345552246
 H     -0.7414369781     6.5896550461    -1.0481681251
 F     -1.2757475933     6.0377964476    -0.5473155981
          4
Energy: -6.321264020771935 Kcal/mole
 H     -2.0374511063     4.6606657355    -1.3653900397
 F     -2.3152931027     4.1001172030    -2.0358213693
 H     -0.7003652904     6.4004421811    -0.8439386279
 F     -1.3033173693     5.8614067462    -0.4117597409
          4
Energy: -6.325280904993747 Kcal/mole
 H     -2.0050743962     4.6039109184    -1.3477779653
 F     -2.3203329867     4.0794461700    -2.0307404451
 H     -0.7879827187     6.3884720718    -0.7843441364
 F     -1.2567382632     5.7370905235    -0.3406558246
          4
Energy: -6.321609635907123 Kcal/mole
 H     -2.1520199204     4.8347878711    -1.4663794257
 F     -2.5010587668     4.2153869800    -2.0455196676
 H     -0.3129896910     5.7061608081    -0.5309243143
 F     -1.2177869844     5.8349532722    -0.4558020197
          4
Energy: -6.320653277009569 Kcal/mole
 H     -2.1123348982     4.7555542500    -1.3064301681
 F     -2.4435879177     4.1348074366    -1.8945065498
 H     -0.3095345655     5.8785570963    -0.6654315414
 F     -1.1869634338     5.8288791154    -0.4036307022
          4
Energy: -6.327066511769544 Kcal/mole
 H     -2.1256029507     4.7908945721    -1.3549977013
 F     -2.4771287142     4.1702655912    -1.9313121169
 H     -0.4110973255     5.3493897329    -0.0337926718
 F     -1.2183752722     5.7194619851    -0.2623486713
          4
Energy: -6.3264550338413414 Kcal/mole
 H     -2.1169945333     4.8876263223    -1.3662805674
 F     -2.5029208629     4.2673027790    -1.9204904281
 H     -0.2313645704     5.5775002377    -0.3416703093
 F     -1.1081469957     5.8429578030    -0.3825831407
          4
Energy: -6.323550638663846 Kcal/mole
 H     -2.1271915712     4.8339588501    -1.3403447735
 F     -2.6491280840     4.5079843889    -2.0202064707
 H     -0.4324464192     6.1544759875    -0.6839622211
 F     -1.0322319191     5.5823183647    -0.2918117286
          4
Energy: -6.319714258880822 Kcal/mole
 H     -2.1812958958     4.8629609679    -1.2657312794
 F     -2.7366160408     4.6632555125    -1.9676046779
 H     -0.7871757360     6.3443526057    -0.3402195043
 F     -1.1133107346     5.5187683160    -0.1101422494
          4
Energy: -6.327488387718574 Kcal/mole
 H     -2.2688338924     4.8817644853    -1.1659856812
 F     -2.8009442730     4.6437042465    -1.8738520990
 H     -1.0264889740     6.4985653507    -0.2454411970
 F     -1.2569513937     5.6363596292    -0.0347818346
          4
Energy: -6.3262362523352635 Kcal/mole
 H     -2.3420348849     4.9346087279    -1.1049197673
 F     -2.8697120237     4.7237190821    -1.8246220630
 H     -0.5723999617     6.0946146664    -0.3681364089
 F     -1.1787770277     5.5062594485    -0.0117181274
          4
Energy: -6.320542742708369 Kcal/mole
 H     -2.3568589021     5.0473938438    -1.1013136062
 F     -2.9072537811     4.7615552171    -1.7767769706
 H     -0.2551560513     5.5354199109    -0.5353246060
 F     -1.0607931247     5.5060665135    -0.0983162719
          4
Energy: -6.32440012872371 Kcal/mole
 H     -2.3550622722     5.1225710339    -1.2096080273
 F     -2.8848794435     4.6801905119    -1.8133316716
 H     -0.4877327612     5.0467226690     0.0405847103
 F     -1.1595062925     5.6523974343    -0.1103039949
          4
Energy: -6.3258204564913285 Kcal/mole
 H     -2.3939060772     5.2099264672    -1.2244748922
 F     -2.9547688305     4.7564066441    -1.7907272583
 H     -0.5554227355     5.1223824980     0.0763548849
 F     -1.1740696837     5.7544999344    -0.1657039927
          4
Energy: -6.321821930118517 Kcal/mole
 H     -2.3447941212     5.0054463713    -1.1406724983
 F     -2.7972718043     4.6174927461    -1.8375547919
 H     -0.4854518875     6.0386897293    -0.4712203130
 F     -1.2684904590     5.7788141776    -0.0709650279
          4
Energy: -6.321513403612357 Kcal/mole
 H     -2.4022782586     5.2064544066    -1.1962726962
 F     -2.8550160083     4.8444915841    -1.9068361664
 H     -0.3870316049     5.8069331777    -0.3693051881
 F     -1.2612282653     5.8471009401    -0.0953421437
          4
Energy: -6.323262998707321 Kcal/mole
 H     -2.3426448566     5.1684536736    -1.1849202651
 F     -2.7948643963     4.8827436570    -1.9297398905
 H     -0.8662777054     6.6272258425    -0.3676020923
 F     -1.3432710743     5.9198086808    -0.0315555400
          4
Energy: -6.325665636855092 Kcal/mole
 H     -2.2672931976     5.1179472487    -1.2107687169
 F     -2.7135414107     4.8557977399    -1.9677556172
 H     -1.3457118172     6.8029268490    -0.0158519325
 F     -1.4603415917     5.8962269694     0.0592769109
          4
Energy: -6.326051513645666 Kcal/mole
 H     -2.3774009241     5.1465756869    -1.1454324526
 F     -2.7462269728     4.7979652159    -1.9091909781
 H     -0.9364948629     6.6006158749    -0.2198567129
 F     -1.5399716853     5.9732486113     0.0684400811
          4
Energy: -6.324664634302849 Kcal/mole
 H     -2.3429647812     5.1372616080    -1.1710864122
 F     -2.7016076686     4.8609320441    -1.9685237147
 H     -1.3216623342     6.8020718464    -0.1042100567
 F     -1.6274505966     5.9675834317     0.1216474742
          4
Energy: -6.326431343479555 Kcal/mole
 H     -2.3356221547     5.1960432162    -1.1904739362
 F     -2.5727555240     4.8170590574    -1.9911160363
 H     -1.1646328442     6.7842826005    -0.1218915350
 F     -1.7153820320     6.0890203196     0.1108630414
          4
Energy: -6.325991636217054 Kcal/mole
 H     -2.1770074373     5.2228235179    -1.2714555724
 F     -2.5089965904     4.9043049903    -2.0646882935
 H     -1.8379763298     7.0385435975    -0.0123327818
 F     -1.6829271974     6.1388768746     0.0739722252
          4
Energy: -6.326965076636668 Kcal/mole
 H     -2.1123307868     5.1647060298    -1.2360912558
 F     -2.3969915417     4.8553351571    -2.0510433512
 H     -1.8065327655     6.9639375276     0.0569138350
 F     -1.6763238645     6.0602599611     0.1423626375
          4
Energy: -6.325474179853131 Kcal/mole
 H     -2.1833840609     5.1313257992    -1.2418977242
 F     -2.4433174460     4.7848833554    -2.0501682658
 H     -1.8211693025     6.9622227132     0.0277774125
 F     -1.7478404632     6.0528759125     0.1205150932
          4
Energy: -6.325723085044558 Kcal/mole
 H     -2.2712459172     5.1836806414    -1.1853408696
 F     -2.4245366814     4.7673572152    -1.9878779382
 H     -1.0431607365     6.6719815858    -9.328072E-40
 F     -1.7572831324     6.1144561184     0.1407836591
          4
Energy: -6.3246752954264025 Kcal/mole
 H     -2.2610037909     5.1696159698    -1.1892501353
 F     -2.3936546082     4.7184777156    -1.9765029767
 H     -1.0568888297     6.6747643039    -0.0354424162
 F     -1.7695043030     6.1198433472     0.1230849284
          4
Energy: -6.326908668135957 Kcal/mole
 H     -2.2078230712     5.0559213771    -1.1421471276
 F     -2.4421722225     4.6520791525    -1.9313751890
 H     -1.2055745160     6.8077302061    -0.1839503922
 F     -1.6370839401     6.0500562661     0.0999841383
          4
Energy: -6.327210148977315 Kcal/mole
 H     -2.2888720444     5.0581187399    -1.1225977961
 F     -2.4561742070     4.6176119417    -1.9092697398
 H     -0.9918293506     6.5385627502    -0.0392379285
 F     -1.7180225064     6.0161515457     0.1623037143
          4
Energy: -6.325318576195173 Kcal/mole
 H     -2.2395894833     5.0187307804    -1.1091719000
 F     -2.4587146134     4.6019206405    -1.8960279762
 H     -1.4392187697     6.8622760149    -0.1069413982
 F     -1.7709184723     6.0482608927     0.1542935308
          4
Energy: -6.32686213521589 Kcal/mole
 H     -2.2390199122     5.0109346118    -1.0916618866
 F     -2.3820659578     4.5848608147    -1.8909665520
 H     -1.2743112312     6.7466839557    -0.0690232320
 F     -1.7770324217     6.0244863688     0.1890291855
          4
Energy: -6.324746299164758 Kcal/mole
 H     -2.2218109589     5.0556896563    -1.1152736458
 F     -2.3573028918     4.6218266498    -1.9116993031
 H     -0.9920774157     6.5035394951     0.0904534884
 F     -1.7420724701     5.9911915195     0.2165327106
          4
Energy: -6.325848858645088 Kcal/mole
 H     -2.2858065671     5.0976945135    -1.1171493753
 F     -2.4318852697     4.6499491356    -1.9039619891
 H     -0.9044942641     6.3897720317     0.0902302544
 F     -1.7398387984     6.0246678331     0.1891617109
          4
Energy: -6.323876859471227 Kcal/mole
 H     -2.1785426204     5.0405922495    -1.1402078070
 F     -2.3753263542     4.7072415088    -1.9714974351
 H     -1.4339630536     6.8014585155    -0.0228713577
 F     -1.7105269688     5.9553686540     0.1974314952
          4
Energy: -6.326020325386651 Kcal/mole
 H     -2.2448799329     5.0828192537    -1.1625673485
 F     -2.3981545629     4.6990971404    -1.9811962189
 H     -1.0917202695     6.6069002603     0.0391653075
 F     -1.7286821577     5.9656895198     0.1941405934
          4
Energy: -6.32745281421694 Kcal/mole
 H     -2.1750278774     5.0270975038    -1.1562426251
 F     -2.2902349910     4.6056685086    -1.9624770345
 H     -1.0876349986     6.6222182398     0.0062505410
 F     -1.7342746149     5.9931207782     0.1705143244
          4
Energy: -6.325759223099851 Kcal/mole
 H     -2.1161561409     4.9977079653    -1.1762612994
 F     -2.3056815969     4.6343299924    -1.9965816943
 H     -1.4947277990     6.8241609879    -1.486103E-40
 F     -1.7189055855     5.9529321857     0.1775975412
          4
Energy: -6.326799983015405 Kcal/mole
 H     -2.0692744910     4.9909899227    -1.1903640799
 F     -2.3047813325     4.6337444702    -2.0014135323
 H     -1.7238800465     6.8375853350     0.0453962520
 F     -1.6865982474     5.9294222774     0.1668002398
          4
Energy: -6.32675876550968 Kcal/mole
 H     -2.0059454566     4.9733063434    -1.1866940606
 F     -2.2783527191     4.6148150577    -1.9855477903
 H     -2.2168776364     6.6704348106     0.2562087870
 F     -1.7179053904     5.9026482912     0.2070197800
          4
Energy: -6.32752910799212 Kcal/mole
 H     -1.9987312785     5.0364660746    -1.2138909553
 F     -2.3180403991     4.6296455182    -1.9711410596
 H     -2.4574060680     6.3536585580     0.5367876802
 F     -1.7277001490     5.9017226240     0.2140305216
          4
Energy: -6.327567598679138 Kcal/mole
 H     -1.9956243495     5.0995518088    -1.2370141259
 F     -2.3096628844     4.6221157305    -1.9541776985
 H     -2.4644327378     5.9684956799     0.7676838092
 F     -1.7362783208     5.9424691630     0.2109048894
          4
Energy: -6.327324385781765 Kcal/mole
 H     -2.0161076663     4.9944266183    -1.1770664993
 F     -2.3248537862     4.6274756314    -1.9586749734
 H     -2.3384823881     6.5497167473     0.3865264742
 F     -1.7229390424     5.8886083446     0.2286307191
          4
Energy: -6.327747702668489 Kcal/mole
 H     -2.0340175639     4.9527691905    -1.1642462954
 F     -2.3379427985     4.5874901583    -1.9485228285
 H     -2.1656975104     6.6808162712     0.2548941550
 F     -1.6990618500     5.8928263521     0.2078617440
          4
Energy: -6.327227603849906 Kcal/mole
 H     -2.0309746702     5.0313087525    -1.2107118248
 F     -2.3588185033     4.6413428671    -1.9731644655
 H     -2.3754692642     6.5054133761     0.4380154864
 F     -1.7157050620     5.9174347998     0.1933087406
          4
Energy: -6.327569781563625 Kcal/mole
 H     -2.0924019827     4.9900772903    -1.1682362179
 F     -2.3555599263     4.6435301009    -1.9754176983
 H     -2.0037864240     6.8015178866     0.1497473049
 F     -1.7431304494     5.9242299601     0.2073090713
          4
Energy: -6.327875264778925 Kcal/mole
 H     -2.0786932521     4.9910306609    -1.1789372982
 F     -2.3620121333     4.6261562938    -1.9710775053
 H     -2.0992053609     6.7822522916     0.1740565950
 F     -1.7284701538     5.9435592759     0.1802559183
          4
Energy: -6.32779233156009 Kcal/mole
 H     -2.0794161778     4.9903982614    -1.1801705785
 F     -2.3773679871     4.6259020288    -1.9670989207
 H     -2.1819330377     6.7249553821     0.2409662681
 F     -1.7389460915     5.9235075191     0.1926662848
          4
Energy: -6.327569808735404 Kcal/mole
 H     -2.1026731844     4.9929193593    -1.1736199058
 F     -2.3613617796     4.6431024064    -1.9808356826
 H     -2.0716951568     6.8023694365     0.1396686720
 F     -1.7677085847     5.9389894017     0.1949504909
          4
Energy: -6.327705825369264 Kcal/mole
 H     -2.1855943170     5.0092007648    -1.1617133691
 F     -2.3702581992     4.6503611194    -1.9851345004
 H     -1.5534276842     6.8238460741     0.0070198864
 F     -1.7850725855     5.9552177194     0.1878911694
          4
Energy: -6.327708768799255 Kcal/mole
 H     -2.2228989678     5.0241346714    -1.1608882394
 F     -2.3682792736     4.6495689102    -1.9851782716
 H     -1.3479894575     6.7347091246    -0.0106391848
 F     -1.8073295474     5.9657113092     0.1856718992
          4
Energy: -6.327694696064668 Kcal/mole
 H     -2.2496806034     5.0365328480    -1.1623563292
 F     -2.3668585698     4.6489112156    -1.9851003928
 H     -1.2326089649     6.6545003996    -0.0016863253
 F     -1.8134502159     5.9699661967     0.1851969707
          4
Energy: -6.327847549199873 Kcal/mole
 H     -2.2708331066     5.0604003902    -1.1712904757
 F     -2.3657364783     4.6476450976    -1.9846264570
 H     -1.0931304617     6.5206163150     0.0561521771
 F     -1.8208492282     5.9770684381     0.1821287718
          4
Energy: -6.327751184307431 Kcal/mole
 H     -2.2699987308     5.0656367922    -1.1740684232
 F     -2.3657807401     4.6473673186    -1.9844790933
 H     -1.0636325499     6.4817799762     0.0696909049
 F     -1.8224140242     5.9791286161     0.1814105736
          4
Energy: -6.32787746166656 Kcal/mole
 H     -2.2794069728     5.0804938859    -1.1808553626
 F     -2.3652816546     4.6465791841    -1.9841190619
 H     -1.0109828561     6.4004635012     0.1155627881
 F     -1.8252069688     5.9834422672     0.1789771762
          4
Energy: -6.327766914631297 Kcal/mole
 H     -2.2841641630     5.0942886974    -1.1879713603
 F     -2.3650292966     4.6458474012    -1.9837415746
 H     -0.9713499216     6.3164034173     0.1590944188
 F     -1.8273094044     5.9879014604     0.1766679238
          4
Energy: -6.327905046100398 Kcal/mole
 H     -2.2906336528     5.0913934912    -1.1857189961
 F     -2.3646861051     4.6460009852    -1.9838610573
 H     -0.9715776396     6.3161168776     0.1470192389
 F     -1.8272973245     5.9879166607     0.1773084842
          4
Energy: -6.327988017714347 Kcal/mole
 H     -2.2877787200     5.0912939732    -1.1859337589
 F     -2.3648375527     4.6460062644    -1.9838496647
 H     -0.9740786423     6.3225786180     0.1472135348
 F     -1.8271646521     5.9875738803     0.1772981772
