          6
Energy: -17.576329387650162 Kcal/mole
 H      5.9311051763     3.8384725654     3.4693451901
 F      5.5863894366     4.6618918369     3.6792041003
 H      5.8772906018     3.1191388216     1.5902793544
 F      6.2547354488     2.6137236174     2.2558466755
 H      5.1052460247     4.9586176328     1.9982715068
 F      5.0740085843     4.6314969614     1.1421726289
          6
Energy: -17.574971249116686 Kcal/mole
 H      5.9157082801     3.8321273956     3.4838256659
 F      5.5699078600     4.6578979122     3.6823555712
 H      5.8634065622     3.1149228384     1.5866216610
 F      6.2290758950     2.5977260064     2.2497071577
 H      5.0925076163     4.9393062529     2.0019888071
 F      5.0635021582     4.6165143233     1.1441700304
          6
Energy: -17.577260539436224 Kcal/mole
 H      5.8933826154     3.8188908357     3.4922074921
 F      5.5471096000     4.6453092971     3.6871857614
 H      5.8579138456     3.1059953468     1.5827863213
 F      6.2293672709     2.5981995892     2.2499106136
 H      5.0793667658     4.9350417459     2.0049357006
 F      5.0533593171     4.6216356769     1.1435477227
          6
Energy: -17.57836900438167 Kcal/mole
 H      5.8976396982     3.8419480447     3.4881834844
 F      5.5623197350     4.6746872943     3.6752526281
 H      5.8192943703     3.1098088267     1.5989893582
 F      6.1940586000     2.5970455944     2.2604382524
 H      5.0761444129     4.9413331133     1.9974776851
 F      5.0393538438     4.6135827456     1.1418404077
          6
Energy: -17.57631418534993 Kcal/mole
 H      5.9048654194     3.8438596948     3.4844525191
 F      5.5623889679     4.6714044608     3.6813498031
 H      5.7936733812     3.1070314085     1.6143223208
 F      6.1872914991     2.6021843551     2.2708916088
 H      5.0485725861     4.9410823899     2.0160868775
 F      5.0015925301     4.6066392501     1.1635438225
          6
Energy: -17.576344589219502 Kcal/mole
 H      5.9084873801     3.8553467274     3.4909047699
 F      5.6029608637     4.7038406159     3.6570392606
 H      5.8126747970     3.0824337800     1.6069383405
 F      6.1682998296     2.5787461222     2.2857008760
 H      5.1340957306     4.9651595762     1.9757734111
 F      5.0771028936     4.6245519620     1.1262869370
          6
Energy: -17.57639545804477 Kcal/mole
 H      5.8377563440     3.8102890857     3.4853419633
 F      5.5069175097     4.6472187227     3.6613631225
 H      5.8027774325     3.0660977764     1.6048141980
 F      6.1560402942     2.5553993842     2.2795597077
 H      5.0742852904     4.9219297761     1.9825110625
 F      5.0494728736     4.5970359451     1.1253545176
          6
Energy: -17.577545705265322 Kcal/mole
 H      5.8348711910     3.8094875008     3.4837647687
 F      5.5070705604     4.6472612449     3.6614467890
 H      5.7969140880     3.0666292347     1.6019560931
 F      6.1375425027     2.5519819476     2.2801886882
 H      5.0744075219     4.9200905458     1.9832022795
 F      5.0494663895     4.5971335120     1.1253178501
          6
Energy: -17.57601609422983 Kcal/mole
 H      5.8301494761     3.8065130627     3.4892601040
 F      5.5073210365     4.6474190320     3.6611552742
 H      5.7933471539     3.0764123823     1.6031052534
 F      6.1337158465     2.5556044693     2.2767500194
 H      5.0807037642     4.9216106857     1.9824208382
 F      5.0491323884     4.5970528721     1.1253593037
          6
Energy: -17.577764129018817 Kcal/mole
 H      5.8375934269     3.8069407599     3.4835359545
 F      5.5228488007     4.6476364584     3.6707672625
 H      5.7628472934     3.0614562894     1.6071115028
 F      6.1093528371     2.5482433960     2.2834512356
 H      5.0582522669     4.9203280433     1.9829169927
 F      5.0318347005     4.5914305859     1.1273367366
          6
Energy: -17.57834336475048 Kcal/mole
 H      5.8379343906     3.8068909572     3.4843348805
 F      5.5228307133     4.6476391003     3.6707248813
 H      5.7572215577     3.0571277883     1.6067485258
 F      6.1096512694     2.5484730129     2.2834704907
 H      5.0692843986     4.9265201140     1.9800926306
 F      5.0312494714     4.5911021109     1.1274865624
          6
Energy: -17.573007060908196 Kcal/mole
 H      5.8297795949     3.7906770726     3.4989020973
 F      5.5099137954     4.6328042144     3.6703568941
 H      5.7587169856     3.0560443778     1.6117572485
 F      6.1261249147     2.5446688394     2.2783871851
 H      5.0606190288     4.9080190577     2.0003800806
 F      5.0191953860     4.5856987972     1.1428937941
          6
Energy: -17.577543719175196 Kcal/mole
 H      5.8340346759     3.7757997459     3.5004351418
 F      5.5184418905     4.6172009443     3.6830117478
 H      5.7499316613     3.0394339268     1.6222791134
 F      6.1188964177     2.5257080408     2.2862367345
 H      5.0495784545     4.8915368472     2.0092078871
 F      5.0057710088     4.5618981401     1.1546271533
          6
Energy: -17.57776235334063 Kcal/mole
 H      5.8175162151     3.7687888390     3.5059200274
 F      5.4850867898     4.6036447065     3.6886639951
 H      5.7583083638     3.0363366535     1.6153292283
 F      6.1184520530     2.5258723440     2.2866054098
 H      5.0317625235     4.8899455165     2.0106571973
 F      4.9989879198     4.5723132801     1.1510499685
          6
Energy: -17.577167937603065 Kcal/mole
 H      5.7887903188     3.7561352328     3.5092047159
 F      5.4505067817     4.5872392122     3.6982005464
 H      5.7878738590     3.0519302516     1.6122091242
 F      6.1168836718     2.5250451397     2.2867709241
 H      5.0509719518     4.8928896973     2.0169370615
 F      5.0448292348     4.5892348279     1.1516943283
          6
Energy: -17.577617617668636 Kcal/mole
 H      5.7781850814     3.7519686427     3.5089068179
 F      5.4510693650     4.5874602402     3.6982163492
 H      5.7692891218     3.0451964652     1.6151043385
 F      6.1017948091     2.5228123002     2.2914502205
 H      5.0388518764     4.8831125579     2.0186415939
 F      5.0297535796     4.5767862784     1.1543670823
          6
Energy: -17.57965398405713 Kcal/mole
 H      5.8118000495     3.7771862291     3.5041791348
 F      5.5031842060     4.6204784396     3.6899303360
 H      5.7131072167     3.0376074772     1.6159328819
 F      6.0739428911     2.5234481033     2.2840097894
 H      5.0247843523     4.9008866370     2.0140870964
 F      4.9756369754     4.5775062194     1.1574082530
          6
Energy: -17.576831344561015 Kcal/mole
 H      5.8237842604     3.7815727780     3.4924913800
 F      5.5228675769     4.6271873395     3.6803055514
 H      5.6842845191     3.0272772644     1.6115370540
 F      6.0472539249     2.5117294692     2.2773843948
 H      5.0317774734     4.9039415890     2.0124953657
 F      4.9752660065     4.5773441613     1.1574926906
          6
Energy: -17.57656989574525 Kcal/mole
 H      5.8094207095     3.7771910758     3.4898578598
 F      5.5236295301     4.6274197787     3.6804452536
 H      5.6847734302     3.0272608715     1.6232604247
 F      6.0330513514     2.5088446859     2.2947037567
 H      5.0268193660     4.9076586777     2.0105563283
 F      4.9707337539     4.5818702587     1.1552170329
          6
Energy: -17.573899320117107 Kcal/mole
 H      5.8276286674     3.7840333551     3.5038524938
 F      5.5262081742     4.6325201432     3.6773600055
 H      5.6624052336     3.0294320534     1.6370850846
 F      6.0342379325     2.5087295098     2.2939703905
 H      5.0205975979     4.9029428456     2.0090028059
 F      4.9561468536     4.5628585405     1.1598398257
          6
Energy: -17.57691017803745 Kcal/mole
 H      5.8380191029     3.7902026928     3.4925634936
 F      5.5256569856     4.6321928741     3.6779588609
 H      5.7075762232     3.0298838368     1.6111253072
 F      6.0690081843     2.5220183604     2.2836790934
 H      5.0195624896     4.8916394913     2.0092974314
 F      4.9616184157     4.5636342318     1.1549298090
          6
Energy: -17.5775569635357 Kcal/mole
 H      5.8306381542     3.7926126189     3.4892062726
 F      5.5317153686     4.6390500332     3.6764971476
 H      5.7071369096     3.0283507726     1.6102063848
 F      6.0690314889     2.5220996859     2.2837278401
 H      5.0306048925     4.9103848221     2.0050230101
 F      4.9674126412     4.5791320193     1.1522819473
          6
Energy: -17.576720441024975 Kcal/mole
 H      5.8246978003     3.7870605566     3.5057746915
 F      5.5320304906     4.6393445573     3.6756182312
 H      5.7206790002     3.0416371343     1.6132050488
 F      6.0683131122     2.5213948751     2.2835687679
 H      5.0687363550     4.9092768410     1.9945388919
 F      5.0098379434     4.5783489464     1.1413644047
          6
Energy: -17.577680426507982 Kcal/mole
 H      5.8247439158     3.7875171714     3.4898751313
 F      5.5316903095     4.6363644167     3.6755278665
 H      5.7286113000     3.0485940594     1.6216371987
 F      6.0696874679     2.5271461072     2.2944284597
 H      5.0607710068     4.9240381338     1.9979437763
 F      5.0155444954     4.5912186189     1.1446708228
          6
Energy: -17.5761767440452 Kcal/mole
 H      5.8324043757     3.8064043119     3.4858979356
 F      5.5374728777     4.6543095019     3.6728770793
 H      5.7242005559     3.0550299218     1.6299205878
 F      6.0798699519     2.5396470060     2.2998226186
 H      5.0662415989     4.9310751964     1.9948540910
 F      5.0152542932     4.5908453190     1.1448347235
          6
Energy: -17.57875241666045 Kcal/mole
 H      5.8287114065     3.8040013207     3.4917183189
 F      5.5293575047     4.6516013825     3.6729650475
 H      5.7443201070     3.0499567449     1.6135849352
 F      6.0960439944     2.5408767010     2.2903543316
 H      5.0609169007     4.9228740241     1.9861123084
 F      5.0140575418     4.5858588080     1.1345760822
          6
Energy: -17.578149765608032 Kcal/mole
 H      5.8356092300     3.8005127244     3.4880244932
 F      5.5255718469     4.6438930138     3.6709876278
 H      5.7351852996     3.0481815869     1.6170739178
 F      6.0965285748     2.5409708690     2.2901692491
 H      5.0551304799     4.9089145820     1.9937455873
 F      5.0044922305     4.5799940415     1.1392656017
          6
Energy: -17.578090247801242 Kcal/mole
 H      5.8760849843     3.8209512841     3.4828889856
 F      5.5656627459     4.6650738577     3.6617300171
 H      5.7552565955     3.0517744034     1.6171571514
 F      6.1225564043     2.5436194180     2.2863046398
 H      5.0684327821     4.9215424375     1.9878677584
 F      5.0037865741     4.5793241629     1.1395774070
          6
Energy: -17.57862824320216 Kcal/mole
 H      5.8954385430     3.8203053664     3.4827963823
 F      5.5760143971     4.6601633470     3.6658149263
 H      5.7536848662     3.0461432290     1.6174215082
 F      6.1336484963     2.5439068397     2.2839612663
 H      5.0444456711     4.8988769036     2.0067020276
 F      4.9771812072     4.5628198843     1.1561550437
          6
Energy: -17.578751841785447 Kcal/mole
 H      5.8849085438     3.8149988915     3.4844404546
 F      5.5792833382     4.6591380097     3.6712863347
 H      5.7311362886     3.0346788818     1.6275963639
 F      6.1107944654     2.5371589659     2.2978370684
 H      5.0431308752     4.9090633080     2.0027060993
 F      4.9772509541     4.5622795191     1.1563670185
          6
Energy: -17.5784503977319 Kcal/mole
 H      5.8858054709     3.8154807896     3.4837347532
 F      5.5792357583     4.6591124461     3.6713237705
 H      5.7262452999     3.0363451856     1.6316375677
 F      6.1110539210     2.5370705723     2.2976226919
 H      5.0524718458     4.9090909619     2.0019129833
 F      4.9767554372     4.5622780521     1.1564090915
          6
Energy: -17.578186201458266 Kcal/mole
 H      5.9040241096     3.8208231698     3.4906279656
 F      5.5782693016     4.6588290452     3.6709581015
 H      5.7420302663     3.0334834493     1.6309872572
 F      6.1365132579     2.5390673797     2.2949337306
 H      5.0301636810     4.8917049031     2.0015338711
 F      4.9632515868     4.5438303125     1.1557235846
          6
Energy: -17.577368418280457 Kcal/mole
 H      5.9294939006     3.8212318087     3.4861685470
 F      5.6137706701     4.6624279747     3.6694629882
 H      5.7369214046     3.0282122057     1.6301406851
 F      6.1367842712     2.5393470070     2.2949786393
 H      5.0260638370     4.8799664559     2.0248557203
 F      4.9339816947     4.5343202438     1.1804988200
          6
Energy: -17.579543785957583 Kcal/mole
 H      5.9320057854     3.8221357508     3.4863673581
 F      5.6136374205     4.6623800226     3.6694524417
 H      5.7229852711     3.0245870452     1.6360487178
 F      6.1375235508     2.5395393134     2.2946652318
 H      5.0229790576     4.8835410723     2.0240105210
 F      4.9238176953     4.5355723754     1.1814110846
          6
Energy: -17.57785809961331 Kcal/mole
 H      5.9227965360     3.8077895832     3.4892271508
 F      5.6078729336     4.6482781712     3.6770862951
 H      5.7010841050     3.0203132466     1.6395264193
 F      6.1136964390     2.5279634244     2.2939205775
 H      5.0199773856     4.8825335018     2.0247732417
 F      4.9239769271     4.5356258247     1.1813706240
          6
Energy: -17.578336151343706 Kcal/mole
 H      5.9103848127     3.8041501754     3.4857127724
 F      5.6062628878     4.6487635576     3.6728680274
 H      5.7078534121     3.0165489870     1.6325138990
 F      6.1133373429     2.5281631097     2.2942925755
 H      5.0196821437     4.8840993017     2.0241609852
 F      4.9239925890     4.5355427627     1.1814031028
          6
Energy: -17.574050810436518 Kcal/mole
 H      5.9117954639     3.8047979794     3.4850894362
 F      5.6061880560     4.6487291931     3.6729010939
 H      5.7122522528     3.0168930283     1.6277708677
 F      6.1209797912     2.5233409332     2.2836955042
 H      5.0101583735     4.8732918529     2.0295643218
 F      4.9244978030     4.5361160728     1.1811164683
          6
Energy: -17.578466058288427 Kcal/mole
 H      5.9223926505     3.8078410106     3.4794682332
 F      5.6114626620     4.6510599637     3.6616586261
 H      5.7175294488     3.0148853462     1.6230155359
 F      6.1206998481     2.5234474361     2.2839477636
 H      5.0298162708     4.8767051083     2.0216009196
 F      4.9326812608     4.5381943871     1.1749225382
          6
Energy: -17.574772986792993 Kcal/mole
 H      5.9476187832     3.8137455293     3.4839490008
 F      5.6304811720     4.6545364002     3.6666603773
 H      5.7181780583     3.0169834988     1.6241849008
 F      6.1206654409     2.5233361339     2.2838857315
 H      5.0329916588     4.8796047507     2.0200643497
 F      4.9325128138     4.5380405678     1.1750040497
          6
Energy: -17.578848564691555 Kcal/mole
 H      5.9273007483     3.8082867453     3.4852608323
 F      5.6186516176     4.6515712286     3.6709918049
 H      5.7163653084     3.0220085966     1.6242368374
 F      6.1244546143     2.5256147084     2.2784120634
 H      5.0281035994     4.8880266061     2.0278147179
 F      4.9236465087     4.5395905566     1.1860486960
          6
Energy: -17.578966139120666 Kcal/mole
 H      5.9250509521     3.8022403919     3.4802752407
 F      5.6200992486     4.6460784693     3.6695653824
 H      5.7268850539     3.0295572298     1.6235376779
 F      6.1238965661     2.5252142709     2.2784491522
 H      5.0448373847     4.8885175501     2.0257346248
 F      4.9522573669     4.5469907229     1.1797574581
          6
Energy: -17.578423579906598 Kcal/mole
 H      5.9232967145     3.8020209503     3.4784453731
 F      5.6201923068     4.6460901101     3.6696624526
 H      5.7201221813     3.0181456589     1.6190073656
 F      6.1242553208     2.5258196284     2.2786894748
 H      5.0371314603     4.8880940645     2.0185742852
 F      4.9306020487     4.5398293043     1.1769971103
          6
Energy: -17.578468874099144 Kcal/mole
 H      5.9344971410     3.8060362702     3.4788654460
 F      5.6195981501     4.6458771067     3.6696401687
 H      5.7389563799     3.0320999744     1.6162999006
 F      6.1425410221     2.5314531680     2.2700285995
 H      5.0221417930     4.8842637779     2.0219001132
 F      4.9313972160     4.5400324921     1.1768206828
          6
Energy: -17.57899385914203 Kcal/mole
 H      5.9291432971     3.8057749457     3.4812387738
 F      5.6201593018     4.6484375666     3.6692217462
 H      5.7069375130     3.0155452017     1.6251043617
 F      6.1161983940     2.5234096086     2.2817603519
 H      5.0312232330     4.8890831633     2.0188903401
 F      4.9309154666     4.5397768349     1.1769803444
          6
Energy: -17.57871846876253 Kcal/mole
 H      5.9217165252     3.8020792120     3.4858505439
 F      5.6205532749     4.6486336168     3.6689771025
 H      5.7116368773     3.0199971415     1.6255457771
 F      6.1159491035     2.5231734435     2.2817369358
 H      5.0417908117     4.8806339738     2.0209572590
 F      4.9414305270     4.5376143726     1.1764725839
          6
Energy: -17.57906213913259 Kcal/mole
 H      5.9088264786     3.7992994074     3.4878400995
 F      5.6069227889     4.6451311899     3.6730744319
 H      5.7261904700     3.0243645316     1.6200943762
 F      6.1151770691     2.5229417636     2.2820261200
 H      5.0516208579     4.8953863837     2.0112645954
 F      4.9591577344     4.5500899609     1.1668062180
          6
Energy: -17.578814916667227 Kcal/mole
 H      5.9147344900     3.8015019564     3.4875250884
 F      5.6066093825     4.6450143498     3.6730911425
 H      5.7275706437     3.0272401150     1.6214712083
 F      6.1151038541     2.5227892205     2.2819530823
 H      5.0417704706     4.8916210594     2.0138094067
 F      4.9596802747     4.5502897026     1.1666712216
          6
Energy: -17.578275965816147 Kcal/mole
 H      5.9056764596     3.8003968691     3.4824197293
 F      5.6049809955     4.6464208656     3.6687383683
 H      5.7288261715     3.0333379734     1.6254352736
 F      6.1150372512     2.5224657432     2.2817427978
 H      5.0481581424     4.8951045864     2.0137784676
 F      4.9644998843     4.5498477128     1.1683862586
          6
Energy: -17.578265913624648 Kcal/mole
 H      5.9063108086     3.8003907699     3.4834754733
 F      5.6049473447     4.6464211892     3.6686823635
 H      5.7142352757     3.0201884105     1.6267398926
 F      6.1064255317     2.5215021066     2.2888484739
 H      5.0416138987     4.8964476668     2.0128535266
 F      4.9464361560     4.5533568496     1.1677979731
          6
Energy: -17.577208287535314 Kcal/mole
 H      5.8992947758     3.7912151312     3.4790714006
 F      5.6066151665     4.6382004431     3.6736055303
 H      5.6995813091     3.0128932492     1.6233609139
 F      6.0885968407     2.5147875857     2.2877754412
 H      5.0441528733     4.9007874689     2.0107872022
 F      4.9463014693     4.5531266331     1.1679075868
          6
Energy: -17.577230973861504 Kcal/mole
 H      5.9010106909     3.7904738622     3.4849845371
 F      5.6065241411     4.6382397657     3.6732918521
 H      5.7015638145     3.0234451154     1.6302396406
 F      6.0884916734     2.5142278335     2.2874105406
 H      5.0396067581     4.9004384589     2.0114456671
 F      4.9465426302     4.5531451473     1.1678726568
          6
Energy: -17.578885720768994 Kcal/mole
 H      5.8910755739     3.7873011533     3.4840376782
 F      5.6070511761     4.6384080706     3.6733420807
 H      5.7128496596     3.0275929670     1.6269333889
 F      6.0878929854     2.5140077996     2.2875859296
 H      5.0633946132     4.9066204923     2.0122964416
 F      4.9809690416     4.5653826644     1.1651531421
          6
Energy: -17.57874340116058 Kcal/mole
 H      5.9101972935     3.7937705829     3.4847756460
 F      5.6060368131     4.6380648823     3.6733029333
 H      5.7257631384     3.0287840212     1.6200039366
 F      6.1137965980     2.5231989311     2.2793238521
 H      5.0591324931     4.9061485842     2.0119095891
 F      4.9745007856     4.5640471940     1.1653322961
          6
Energy: -17.57633546955003 Kcal/mole
 H      5.9051554511     3.7915303056     3.4867702951
 F      5.6063042712     4.6381837239     3.6731971217
 H      5.7270316860     3.0198106331     1.6163584795
 F      6.1238616418     2.5225656834     2.2767844375
 H      5.0537784735     4.8939710232     2.0227612417
 F      4.9655427632     4.5558043016     1.1749719237
          6
Energy: -17.578960411570392 Kcal/mole
 H      5.9108822096     3.7940770587     3.4845099139
 F      5.6060004799     4.6380486245     3.6733170297
 H      5.7348952176     3.0240846783     1.6149170346
 F      6.1234444996     2.5223389552     2.2768609029
 H      5.0507230996     4.8896379102     2.0247876231
 F      4.9657048437     4.5560341632     1.1748644288
          6
Energy: -17.57954143808024 Kcal/mole
 H      5.9136485378     3.7934792313     3.4829887047
 F      5.6095297061     4.6369276531     3.6753308377
 H      5.7335611136     3.0243730728     1.6159210132
 F      6.1235152708     2.5223236565     2.2768076441
 H      5.0541017794     4.8894953719     2.0244984636
 F      4.9655256125     4.5560417246     1.1748797681
          6
Energy: -17.57903126729036 Kcal/mole
 H      5.9165897237     3.7937504824     3.4865074151
 F      5.6093736830     4.6369132638     3.6751441783
 H      5.7268454620     3.0285676203     1.6231617117
 F      6.1238715206     2.5221011455     2.2764235418
 H      5.0590167895     4.8948555329     2.0218451889
 F      4.9652648826     4.5557573804     1.1750205182
          6
Energy: -17.57932549712592 Kcal/mole
 H      5.9107365679     3.7919361806     3.4851940351
 F      5.6096841794     4.6370095083     3.6752138500
 H      5.7329294648     3.0283786920     1.6193591444
 F      6.1235487783     2.5221111677     2.2766252592
 H      5.0569123083     4.8898988407     2.0240419782
 F      4.9653765205     4.5560203215     1.1749039836
          6
Energy: -17.579572481608523 Kcal/mole
 H      5.9250079485     3.7963719703     3.4836672144
 F      5.6184836036     4.6394105674     3.6739768298
 H      5.7315800298     3.0285476870     1.6202934775
 F      6.1236203627     2.5221022029     2.2765756950
 H      5.0594435206     4.8927998240     2.0226180110
 F      4.9652422455     4.5558664310     1.1749795217
          6
Energy: -17.579136974374762 Kcal/mole
 H      5.9222295739     3.7964219033     3.4790513110
 F      5.6186309900     4.6394079186     3.6742216928
 H      5.7335062830     3.0261194645     1.6172839426
 F      6.1235181794     2.5222310145     2.2767353439
 H      5.0500270640     4.8930289927     2.0235177896
 F      4.9657417668     4.5558542741     1.1749317906
          6
Energy: -17.579568829501397 Kcal/mole
 H      5.9188090864     3.7931419561     3.4881829431
 F      5.6188124389     4.6395819122     3.6737372808
 H      5.7292591512     3.0272795104     1.6207070018
 F      6.1237434799     2.5221694767     2.2765537585
 H      5.0615670518     4.8957366932     2.0212052209
 F      4.9651295971     4.5557106369     1.1750544670
          6
Energy: -17.5793660300817 Kcal/mole
 H      5.9169590427     3.7936957899     3.4827595004
 F      5.6189105795     4.6395525326     3.6740249819
 H      5.7295400414     3.0251059093     1.6188705824
 F      6.1237285794     2.5222847812     2.2766511763
 H      5.0564489065     4.8909097585     2.0236936003
 F      4.9654011029     4.5559666946     1.1749224642
          6
Energy: -17.579046556829553 Kcal/mole
 H      5.9242045399     3.7963440650     3.4825023527
 F      5.6185262226     4.6394120477     3.6740386230
 H      5.7271215275     3.0279277951     1.6224986268
 F      6.1238568759     2.5221350867     2.2764587169
 H      5.0594176954     4.8964227596     2.0214561879
 F      4.9687225700     4.5526171269     1.1761981911
          6
Energy: -17.578924221984096 Kcal/mole
 H      5.9223879886     3.7957868161     3.4820665048
 F      5.6186225864     4.6394416085     3.6740617437
 H      5.7310608380     3.0287431024     1.6207548423
 F      6.1236479046     2.5220918365     2.2765512207
 H      5.0521447114     4.8898369654     2.0248481835
 F      4.9691083850     4.5529664881     1.1760182535
          6
Energy: -17.579802128535448 Kcal/mole
 H      5.9185342434     3.7940158129     3.4838089989
 F      5.6188270187     4.6395355561     3.6739693084
 H      5.7346103073     3.0253818188     1.6160699494
 F      6.1234596135     2.5222701449     2.2767997434
 H      5.0587262760     4.8931674251     2.0200720597
 F      4.9712164156     4.5570457644     1.1713947043
          6
Energy: -17.57885274079655 Kcal/mole
 H      5.9163131087     3.7926778176     3.4862932231
 F      5.6189448448     4.6396065337     3.6738375261
 H      5.7297266371     3.0226096358     1.6168588133
 F      6.1237186809     2.5224172028     2.2767578960
 H      5.0629701448     4.8971662618     2.0180270181
 F      4.9709912882     4.5568336354     1.1715031890
          6
Energy: -17.57958841167641 Kcal/mole
 H      5.9218655721     3.7950703390     3.4844054257
 F      5.6186502994     4.6394796159     3.6739376694
 H      5.7294880083     3.0249463063     1.6187797896
 F      6.1237313396     2.5222932478     2.2766559926
 H      5.0662108658     4.8950964297     2.0184977096
 F      4.9708193754     4.5569434352     1.1714782199
          6
Energy: -17.57937888092414 Kcal/mole
 H      5.9211910333     3.7946409148     3.4852432015
 F      5.6186860821     4.6395023959     3.6738932273
 H      5.7379049054     3.0292944665     1.6171320569
 F      6.1232848427     2.5220625880     2.2767434010
 H      5.0631723256     4.8969845707     2.0180780489
 F      4.9709805630     4.5568432737     1.1715004819
          6
Energy: -17.579509136732042 Kcal/mole
 H      5.9201977553     3.7942379719     3.4854583548
 F      5.6187387732     4.6395237711     3.6738818139
 H      5.7385556170     3.0276864006     1.6155197736
 F      6.1232503239     2.5221478921     2.2768289290
 H      5.0592763581     4.8949270197     2.0193159820
 F      4.9711872351     4.5569524220     1.1714348124
          6
Energy: -17.579607043080955 Kcal/mole
 H      5.9171228619     3.7943512378     3.4801363111
 F      5.6189018892     4.6395177626     3.6741641360
 H      5.7337303853     3.0288139684     1.6192191084
 F      6.1235062913     2.5220880773     2.2766326878
 H      5.0572723369     4.8976349862     2.0184372343
 F      4.9712935437     4.5568087706     1.1714814280
          6
Energy: -17.579484504448544 Kcal/mole
 H      5.9208341102     3.7940110270     3.4885784955
 F      5.6159438474     4.6385783946     3.6746883804
 H      5.7285525149     3.0296736850     1.6229851134
 F      6.1237809654     2.5220424713     2.2764329099
 H      5.0612969542     4.8957798303     2.0187629393
 F      4.9710800471     4.5569071823     1.1714641501
          6
Energy: -17.57981253779934 Kcal/mole
 H      5.9180078828     3.7942952752     3.4827766320
 F      5.6160937723     4.6385633159     3.6749961559
 H      5.7356425178     3.0279936417     1.6174590695
 F      6.1234048571     2.5221315937     2.2767260538
 H      5.0615651982     4.8944236473     2.0192754250
 F      4.9710658174     4.5569791247     1.1714369639
          6
Energy: -17.580022193327068 Kcal/mole
 H      5.9152622016     3.7928805389     3.4847142954
 F      5.6162394243     4.6386383644     3.6748933673
 H      5.7320706376     3.0286459817     1.6200764968
 F      6.1235943371     2.5220969886     2.2765872053
 H      5.0606802298     4.8969644866     2.0183535960
 F      4.9711127629     4.5568443391     1.1714858648
          6
Energy: -17.580201067334656 Kcal/mole
 H      5.9169549358     3.7931189447     3.4863309147
 F      5.6161496287     4.6386257175     3.6748076094
 H      5.7332056863     3.0294362342     1.6200108659
 F      6.1235341254     2.5220550675     2.2765906869
 H      5.0591651816     4.8964452009     2.0187207100
 F      4.9711931327     4.5568718860     1.1714663902
          6
Energy: -17.579891371691872 Kcal/mole
 H      5.9208041174     3.7953343688     3.4826291235
 F      5.6159454385     4.6385081944     3.6750039809
 H      5.7312060897     3.0250241793     1.6178128154
 F      6.1236401994     2.5222891168     2.2767072884
 H      5.0587888948     4.8965582953     2.0187143573
 F      4.9712130939     4.5568658866     1.1714667272
          6
Energy: -17.580122580243824 Kcal/mole
 H      5.9211621084     3.7947863088     3.4856242943
 F      5.6159264479     4.6385372677     3.6748450940
 H      5.7344414423     3.0286974497     1.6187083413
 F      6.1234685714     2.5220942583     2.2766597828
 H      5.0575917699     4.8945366037     2.0196446994
 F      4.9712765986     4.5569731326     1.1714173747
          6
Energy: -17.579977564106173 Kcal/mole
 H      5.9221171583     3.7955154715     3.4839255551
 F      5.6158757847     4.6384985873     3.6749352082
 H      5.7343373893     3.0280367014     1.6182616258
 F      6.1234740911     2.5221293095     2.2766834800
 H      5.0568357036     4.8946458034     2.0196778159
 F      4.9713167061     4.5569673399     1.1714156180
          6
Energy: -17.58000947772058 Kcal/mole
 H      5.9209771106     3.7947926441     3.4852980129
 F      5.6159362616     4.6385369316     3.6748624025
 H      5.7311064473     3.0274017589     1.6196936019
 F      6.1236454852     2.5221629917     2.2766075170
 H      5.0622445294     4.8960810262     2.0185409387
 F      4.9710297804     4.5568912046     1.1714759267
          6
Energy: -17.580147043974648 Kcal/mole
 H      5.9205323786     3.7949867243     3.4837260382
 F      5.6159598536     4.6385266361     3.6749457921
 H      5.7313717453     3.0267239505     1.6190145583
 F      6.1236314117     2.5221989479     2.2766435387
 H      5.0592854575     4.8964608109     2.0187019558
 F      4.9711867523     4.5568710579     1.1714673851
          6
Energy: -17.58023247083861 Kcal/mole
 H      5.9183033169     3.7939441259     3.4847947156
 F      5.6160781002     4.6385819435     3.6748891012
 H      5.7327842913     3.0266296644     1.6181019453
 F      6.1235564794     2.5222039495     2.2766919507
 H      5.0606433583     4.8957557916     2.0188418759
 F      4.9711147189     4.5569084575     1.1714599627
          6
Energy: -17.580105247288486 Kcal/mole
 H      5.9201660945     3.7946488502     3.4846360750
 F      5.6159792841     4.6385445595     3.6748975167
 H      5.7304521438     3.0274824845     1.6201471812
 F      6.1236801944     2.5221587094     2.2765834557
 H      5.0575527882     4.8959414671     2.0190881635
 F      4.9712786665     4.5568986079     1.1714468977
          6
Energy: -17.580229351753815 Kcal/mole
 H      5.9180326159     3.7936107092     3.4858493838
 F      5.6160924602     4.6385996305     3.6748331535
 H      5.7326574531     3.0269711766     1.6184389715
 F      6.1235632079     2.5221858331     2.2766740722
 H      5.0587005439     4.8950673490     2.0193196503
 F      4.9712177807     4.5569449778     1.1714346178
          6
Energy: -17.580239892782288 Kcal/mole
 H      5.9168449010     3.7932133860     3.4857326957
 F      5.6161554658     4.6386207076     3.6748393435
 H      5.7336491723     3.0277236045     1.6184282790
 F      6.1235105995     2.5221459186     2.2766746395
 H      5.0604056091     4.8959127902     2.0188041637
 F      4.9711273309     4.5569001291     1.1714619632
          6
Energy: -17.580274809555647 Kcal/mole
 H      5.9180363715     3.7937406261     3.4852754613
 F      5.6160922610     4.6385927387     3.6748635988
 H      5.7325763901     3.0270690536     1.6185621970
 F      6.1235675081     2.5221806410     2.2766675354
 H      5.0593734298     4.8954234463     2.0191078301
 F      4.9711820856     4.5569260877     1.1714458544
          6
Energy: -17.580311957519484 Kcal/mole
 H      5.9185121479     3.7939368994     3.4851593280
 F      5.6160670222     4.6385823269     3.6748697594
 H      5.7331880983     3.0280829202     1.6189778543
 F      6.1235350584     2.5221268577     2.2766454858
 H      5.0592266057     4.8955597735     2.0190686403
 F      4.9711898743     4.5569188558     1.1714479333
