          6
Energy: -17.20189454112267 Kcal/mole
 H     -3.8611527359    -1.8308468810    -2.7457417184
 F     -3.2634898968    -1.9129154926    -3.4363594663
 H     -3.9077114732    -0.2930349206    -1.5520081015
 F     -4.4447507230    -1.0120446834    -1.3635862205
 H     -2.5778597214    -0.2488805961    -2.9638744901
 F     -2.6746286761     0.4846636894    -2.4221757265
          6
Energy: -17.232625502124506 Kcal/mole
 H     -2.9342489348    -2.3366863678     0.0273707713
 F     -2.3001248809    -2.1885379484    -0.6182512002
 H     -2.9793444776    -4.0511429459     1.0994026834
 F     -3.6320156004    -3.4115382509     1.1756604010
 H     -1.5048693326    -3.7011364846    -0.2981816612
 F     -1.5350569372    -4.5333476587     0.0857483718
          6
Energy: -16.995213197405178 Kcal/mole
 H     -1.2556296883    -2.4732164430    -1.6464355571
 F     -0.6020477562    -1.8498971027    -1.4877136051
 H     -1.7385373380    -3.7930969510     0.0127918110
 F     -2.1607458034    -3.9529159805    -0.7853854184
 H     -0.3548985377    -2.3171842466     0.3540527087
 F     -0.7007163282    -2.8587205647     1.0082984362
          6
Energy: -17.32022854410104 Kcal/mole
 H     -0.7138334849    -2.5508456025     2.7808835892
 F     -1.2085816552    -1.8311674931     2.5012826830
 H     -0.5714623837    -4.0343201341     1.3733694285
 F     -0.1147139969    -4.1200754435     2.1638856763
 H     -1.7277077708    -2.5217366373     0.9745659859
 F     -1.6472583761    -3.1743284760     0.3353940317
          6
Energy: -17.19416829692642 Kcal/mole
 H     -0.8526075537    -4.5061684996     5.4565833805
 F     -1.5343862714    -4.9760341310     5.8506557960
 H     -0.9919528607    -3.4150518126     3.7505346788
 F     -0.1954053078    -3.4317829179     4.2045402581
 H     -2.7570303266    -4.5042237599     4.4359569922
 F     -2.7094659481    -4.0107812140     3.6645031156
          6
Energy: -17.12778948927928 Kcal/mole
 H     -2.4664281138    -1.8173362832     4.1197246022
 F     -2.7090070315    -1.7944833952     3.2356871515
 H     -3.7381860833    -3.0828220614     5.2486163917
 F     -3.0645914259    -2.6190810129     5.6634699532
 H     -4.0443366678    -2.7614416750     3.2953556555
 F     -4.6326434124    -3.3162242310     3.7277911880
          6
Energy: -17.423934497552523 Kcal/mole
 H     -0.9368705917    -1.8834249381     1.5869927871
 F     -1.6785930984    -1.5226447161     1.1862754872
 H     -0.6589177596    -3.9295940287     1.6701041788
 F     -0.0348858173    -3.3994862455     2.0829708320
 H     -2.3538124065    -3.1702178887     0.7484170719
 F     -2.1859473796    -4.0705503470     0.7943713688
          6
Energy: -17.11001122116295 Kcal/mole
 H     -2.4743082696    -2.3470322090     5.3512905534
 F     -2.6141366889    -1.5485217496     4.9226671063
 H     -2.8579673438    -4.1061334920     4.1758316676
 F     -2.4906390403    -4.1286576757     5.0157433169
 H     -3.1192914982    -2.2212491428     3.4828549860
 F     -3.3185581120    -2.9204151922     2.9239733778
          6
Energy: -17.436924931266162 Kcal/mole
 H     -5.7271052740    -2.6657147337     4.9650300322
 F     -6.0582442899    -2.8765294484     5.7937598484
 H     -4.4949345010    -3.8953892696     3.9320187352
 F     -4.6866292133    -3.0499835127     3.6329681651
 H     -5.2560471733    -4.4442784114     5.7275663687
 F     -4.7734691696    -5.0748234899     5.2688503625
          6
Energy: -17.009288174827645 Kcal/mole
 H     -0.8934543784    -5.3878226649     4.3592378314
 F     -1.1002369658    -5.9384792838     3.6557413854
 H     -1.7630227515    -5.9550213075     6.1080866571
 F     -1.1678964215    -5.2574872916     6.0954396026
 H     -2.3296389331    -6.9548933232     4.4595867307
 F     -2.7867270993    -7.0675048145     5.2465289524
          6
Energy: -16.89975211635982 Kcal/mole
 H     -0.2361453184    -5.1435406805     4.7543697586
 F     -0.0899769218    -5.1662877663     3.8493800515
 H     -0.5072265356    -3.4096186563     5.8380564729
 F     -0.5148457177    -4.2604578297     6.1799682290
 H     -0.0525696733    -3.4622694144     3.7013818055
 F     -0.2047758402    -2.6047252270     3.9883317131
          6
Energy: -16.995532778650897 Kcal/mole
 H     -0.3107647722    -4.3766511110     4.4449145551
 F     -1.0564118548    -4.9093756618     4.4781407684
 H     -0.0336127368    -2.8552334864     3.2832378323
 F      0.5271870076    -2.9892257656     3.9962867197
 H     -1.7035280757    -4.1228075539     2.9440912984
 F     -1.4982860793    -3.3929271428     2.4283013136
          6
Energy: -17.241386224290977 Kcal/mole
 H     -1.6049069860    -4.3368870433     3.5894371629
 F     -2.2335633575    -4.1019715576     2.9645412666
 H      0.3056706714    -4.6279374513     3.0137077552
 F      0.0818130427    -4.8641479947     3.8710182831
 H     -0.9556242548    -4.0174567020     1.5740686915
 F     -0.0637879612    -4.1151627647     1.3844096533
          6
Energy: -17.09056959457871 Kcal/mole
 H      0.0582245535    -5.8953088725     3.0911351419
 F     -0.2041947710    -5.0592468322     2.8209030880
 H      1.4459609458    -7.0263213420     2.2468893520
 F      0.9712949202    -7.3534192403     2.9600430024
 H      0.9796993777    -5.1978136083     1.6050565988
 F      1.6948802185    -5.5738181981     1.1714370497
          6
Energy: -17.029214693604104 Kcal/mole
 H      1.7478650020    -5.2421358858     6.2072170873
 F      1.7502049249    -5.5960786231     5.3612808820
 H      0.7791061332    -3.4128006168     6.6164380006
 F      1.1542011041    -3.8845306102     7.3075700980
 H      0.6597504844    -4.3705162051     4.7079472460
 F      0.2303122433    -3.5626760718     4.7701253469
          6
Energy: -17.053164482743114 Kcal/mole
 H     -2.7447327329    -4.7936213000     5.7329877704
 F     -3.0007861994    -4.6132800347     4.8711277758
 H     -1.9393160243    -3.5453538061     7.0571875835
 F     -2.0556073542    -4.4329677980     7.2559505779
 H     -2.7005390664    -2.7736197914     5.1425211135
 F     -2.4395791025    -2.2361760522     5.8381813211
          6
Energy: -17.15596263426204 Kcal/mole
 H     -2.1735622390    -4.5289527608     4.0054328037
 F     -2.1074676980    -5.0109556069     3.2281337828
 H     -2.1521057538    -5.4290397480     5.9185763185
 F     -2.3596683602    -4.5411088362     5.8216977333
 H     -1.7827169861    -6.4637483033     4.1973933697
 F     -1.6245536285    -6.8952287807     4.9909284666
          6
Energy: -17.43867049269255 Kcal/mole
 H      0.2161315509    -4.3717521557     7.3832960422
 F     -0.0353895929    -3.4926834475     7.4530407233
 H     -1.1759083350    -5.8021886831     7.0754165804
 F     -0.2860012101    -6.0182981818     7.1228612184
 H     -1.6612183273    -3.8458035628     7.1452001805
 F     -2.3387365710    -4.4454841271     6.9960651733
          6
Energy: -16.987252365612846 Kcal/mole
 H      1.0188785147    -3.3947914655     5.5547799094
 F      0.4877830950    -2.7273046734     5.8913627931
 H      3.1738660691    -3.4001890782     6.1422566039
 F      2.8079046614    -3.9544130573     5.5099615548
 H      1.7064187833    -2.0602351951     6.9916841299
 F      2.5440057841    -2.0183491128     7.3626053778
          6
Energy: -17.410043405177476 Kcal/mole
 H     -1.9237941955    -1.4586528028     3.3138622742
 F     -1.0888909542    -1.8227291934     3.2076833710
 H     -1.9465747963     0.3901509557     4.3861782238
 F     -2.7455117878     0.0638285289     4.0761744214
 H     -0.2197931076    -0.6040523815     4.1332196284
 F     -0.2314790000     0.1654100662     4.6318978628
          6
Energy: -17.346584242079416 Kcal/mole
 H     -2.4375145272     3.0083576905     4.2837990597
 F     -1.7624810970     3.6126626606     4.1422562348
 H     -2.7634403786     1.5437240504     2.9467881898
 F     -3.3392139420     1.6877631113     3.6458064675
 H     -1.1512130118     2.7979928470     2.6419465383
 F     -1.2894418528     2.1106157617     2.0509350917
          6
Energy: -17.429357825303725 Kcal/mole
 H     -3.1878718002    -0.1607341195     4.0453175538
 F     -2.8465385118    -0.1773716912     4.8962604293
 H     -1.8778552581    -0.0576297585     2.4132345431
 F     -2.7822056299    -0.0552376032     2.2614660264
 H     -1.0918010572    -0.1496681776     4.3171438472
 F     -0.5523211763    -0.1446329678     3.5756419223
          6
Energy: -17.280672420980522 Kcal/mole
 H     -2.4861598832    -0.5826441235     4.9299642937
 F     -1.7831625928    -0.2578859987     4.4388268689
 H     -2.1370980670    -1.1082818188     6.8600484177
 F     -2.9374838464    -1.3079178112     6.4595274137
 H     -0.5577529263    -0.3566386404     5.7716526773
 F     -0.4211701039    -0.5857873407     6.6489924095
          6
Energy: -17.360203173373122 Kcal/mole
 H     -2.8796778666    -1.8567484712     4.7047547638
 F     -3.6078861223    -1.4221062310     5.0535926336
 H     -1.6204713409    -2.8949936708     5.8241517945
 F     -1.4983708997    -2.9105385484     4.9154500618
 H     -3.0755208498    -1.8343162583     6.6323332556
 F     -2.5311332399    -2.2956546432     7.2082655648
          6
Energy: -17.414298173429188 Kcal/mole
 H      2.0534160781     1.0622931117     6.1073112071
 F      1.6960528355     1.7154992181     6.6425702989
 H      1.0111714317    -0.6703781550     6.0140905786
 F      1.7750605394    -0.6075558806     5.5106863743
 H      0.2806581926     0.7805987933     7.1421401711
 F     -0.1581580893    -0.0180568326     7.0397758128
          6
Energy: -17.397219222096396 Kcal/mole
 H     -0.6748300810    -0.8498195664     6.6084101725
 F     -0.7512539016    -0.5599350190     7.4750215899
 H     -0.2506493680     0.5444220834     5.1369726306
 F     -0.4404013313    -0.3279926350     4.9277460754
 H     -0.3564176798     1.0861089142     7.0391709937
 F     -0.0741649675     1.7275785119     6.4477835051
          6
Energy: -17.326983542190533 Kcal/mole
 H     -0.6914423078    -1.4562996420     5.8337858629
 F     -1.5505233688    -1.1781968714     5.9935593888
 H      0.8884358348    -0.5102532944     6.6204520951
 F      1.0005400514    -1.2740545026     6.1255487117
 H     -1.0614387076     0.0940899124     7.0618882724
 F     -0.3855166075     0.6164263796     7.3953293161
          6
Energy: -17.422860948724804 Kcal/mole
 H     -0.4831250999    -1.1798913040     5.3233723817
 F     -0.6651254729    -1.3654966736     4.4439887845
 H      0.0166338615     0.7869375022     5.8385341812
 F      0.0522351130     0.1014100305     6.4465421058
 H     -0.4744391257     0.3395528182     3.9200411568
 F     -0.2899368851     1.2159451570     4.1169786892
          6
Energy: -17.4046580259307 Kcal/mole
 H      1.8654761391    -0.1971183691     5.0271139764
 F      1.9253119539    -0.2581943440     4.1141088283
 H      0.5346828933     1.1403013878     5.8451626364
 F      1.0804583233     0.6649913990     6.4082777175
 H      0.5728910650     0.8940535871     3.9002321242
 F     -0.0657499123     1.4345531594     4.2755811812
          6
Energy: -17.31470371744308 Kcal/mole
 H      1.1143497804    -1.1007046864     4.1561894003
 F      1.9896162612    -0.9409195585     3.9342292678
 H     -0.2282183751     0.3875305265     4.1842045582
 F     -0.5565730425    -0.4678935637     4.2205616523
 H      1.7102827262     0.8063860591     3.8944754828
 F      1.1169198933     1.4921619872     4.0305670882
          6
Energy: -17.364842335482365 Kcal/mole
 H      0.4693840985     0.6441700990     7.1724730206
 F      1.3038730481     0.2760455325     7.2673492371
 H     -0.2425101953     0.9780783456     5.2771067613
 F     -0.7715633715     1.0726346507     6.0201080008
 H      1.6589619253     0.3282333526     5.5702910493
 F      1.3895179890     0.5231234050     4.7157111334
          6
Energy: -17.32056313936556 Kcal/mole
 H      0.2276093914     1.2578404766     5.1293347540
 F      0.1613451728     1.3158170826     4.2165714953
 H      0.2117200664    -0.6337297502     5.9850199884
 F      0.4106372852     0.1207686770     6.4667388517
 H     -0.1486984788    -0.3708140054     3.9938247898
 F     -0.2430618192    -1.2231941760     4.3185286621
          6
Energy: -17.30678875091644 Kcal/mole
 H     -1.5418902913     1.1490409139     3.9497777377
 F     -1.3868487929     1.8437796953     4.5278686988
 H     -1.7522283818    -0.7281472227     4.6366989572
 F     -1.8221531160    -0.5467571023     3.7405420759
 H     -1.6245320772     0.8295542919     5.8766719052
 F     -1.7108369249     0.0126162424     6.2841675451
          6
Energy: -17.402892163161084 Kcal/mole
 H      0.4763540831    -2.4646555629     4.6683813105
 F      0.7958281520    -2.9001738916     5.4094272637
 H     -0.5139809162    -0.6255953914     5.0384195932
 F     -0.5171601862    -0.9693641753     4.1883008277
 H      0.4234095998    -1.6206137420     6.5286427695
 F      0.0194747240    -0.8208052174     6.7236605639
          6
Energy: -17.522641019000446 Kcal/mole
 H      0.1191576609    -3.1864681651     5.2791971927
 F      0.7291568035    -3.1379097991     5.9621555597
 H      0.4191398387    -2.3498766918     3.4789913599
 F     -0.3470367277    -2.8262777523     3.6430172686
 H      1.8107798787    -2.1765768205     5.0074245042
 F      1.9801971588    -1.7640019401     4.2061949782
          6
Energy: -17.46586940346276 Kcal/mole
 H     -1.3732650866    -4.4609411687     3.8245821648
 F     -1.5347204748    -3.5934697784     3.5749533510
 H      0.4997516229    -5.1008466277     4.2904252661
 F     -0.1877140716    -5.7076234685     4.2803364415
 H      0.1541983348    -3.1814022662     3.7368538122
 F      1.0225328338    -3.4119366470     3.9205331442
          6
Energy: -17.431649117590496 Kcal/mole
 H      1.2893347148    -5.8694061273     4.1133901069
 F      1.8335251618    -5.2130082718     3.7759177190
 H     -0.5033115419    -6.2792345235     3.1929556922
 F     -0.2690476703    -6.6979887865     3.9743994239
 H      0.8419166133    -4.9450467862     2.3804160632
 F      0.0979250817    -5.1654697318     1.8917655480
          6
Energy: -17.495155111975635 Kcal/mole
 H      1.0475701870    -6.3149529382     4.7886349393
 F      1.6356098860    -5.6128720782     4.8353337445
 H      0.3363112850    -6.9834652695     2.9967874734
 F      0.0412451015    -7.3640767424     3.7771462717
 H      1.7257466013    -5.4497299504     3.0319171510
 F      1.4105484291    -5.7438718851     2.2225843180
          6
Energy: -17.47089982817721 Kcal/mole
 H      0.5359086039    -6.1454995809     4.6271276692
 F      1.3193545957    -5.7335403111     4.8666917274
 H      0.5033670029    -7.3124029716     2.9978433284
 F     -0.2904343696    -7.2332072080     3.4500561234
 H      2.2453591703    -6.4410398429     3.4675638024
 F      2.1685200087    -6.9845080607     2.7329706908
          6
Energy: -17.44405967395693 Kcal/mole
 H      0.8906558342    -4.8312364573     3.8938316021
 F      1.5739090059    -4.7279588967     4.4966481985
 H      1.0373515043    -6.4063997483     2.5365239635
 F      0.2614228532    -5.9177286572     2.5414527679
 H      2.4876966722    -6.0772725986     3.9034993647
 F      2.5993883152    -6.7318830395     3.2711235686
          6
Energy: -17.467121448247894 Kcal/mole
 H      0.8039803254    -4.9085423024     2.3589602124
 F      1.1475963151    -4.6899833673     3.1805738951
 H      1.4529328718    -6.4948153538     1.2350786554
 F      0.7839979317    -5.9515090304     0.9216567596
 H      2.3040899057    -6.1055397221     3.1261679864
 F      2.5579051096    -6.8301122452     2.6247086151
          6
Energy: -17.341884397201966 Kcal/mole
 H     -1.6188364710    -5.2602993470     3.5150192392
 F     -1.5181762968    -4.7536381029     4.2726807158
 H     -0.9744430746    -7.1315442889     3.2553596237
 F     -1.3646052551    -6.7053914410     2.5432808197
 H     -0.7872372022    -6.1406775759     5.0425717397
 F     -0.4372122556    -6.9847426654     4.9655934217
          6
Energy: -17.444530174193517 Kcal/mole
 H     -1.5322652064    -4.5756256737     3.5985258657
 F     -1.6954301516    -4.6949217848     4.4929724201
 H      0.2196366591    -5.2217728494     2.8391643907
 F     -0.3783674853    -4.8748804172     2.2367146552
 H     -0.0788955766    -5.3704436389     4.8506296748
 F      0.7223508009    -5.6150493023     4.4777204203
          6
Energy: -17.51982354675272 Kcal/mole
 H     -0.5390670640    -7.3490174599     3.3885284801
 F     -0.6316404172    -7.3306915115     4.3006596844
 H      0.6481366171    -6.0304305862     2.4092388967
 F      0.1793906433    -6.6604357764     1.9356782644
 H      0.4980054137    -6.0273287028     4.4017545412
 F      1.0548432909    -5.4104919486     4.0140265475
          6
Energy: -17.459935881443755 Kcal/mole
 H     -1.0062074587    -6.5436295493     3.0577242656
 F     -1.5018043711    -6.0668721037     3.6643337268
 H      0.9977733374    -6.0018584556     2.8073655873
 F      0.6161407250    -6.6736041856     2.3133987632
 H     -0.2040744820    -5.0290694045     4.1772388578
 F      0.6792371794    -4.7917356278     4.1114955141
          6
Energy: -17.535628317551698 Kcal/mole
 H     -0.2859049221    -6.1544447883     3.8609892213
 F     -0.7353330889    -6.0880662620     3.0644358872
 H      1.3758208793    -5.1126764557     4.2299436524
 F      1.0476901017    -5.6972206386     4.8556650689
 H      0.4346842763    -4.9333760116     2.4171673217
 F      1.1854914864    -4.4383529030     2.5964147910
          6
Energy: -17.48899572196126 Kcal/mole
 H      0.6275083382    -6.9256125589     3.5330490811
 F      0.0179406565    -6.7899837284     2.8615425198
 H      1.8587742669    -5.3001723300     3.9617048188
 F      1.9919809106    -6.0799692111     4.4254523949
 H      0.4584645620    -5.1313165580     2.5338550361
 F      0.9955577743    -4.4176552302     2.7414782294
          6
Energy: -17.547075213810444 Kcal/mole
 H      1.1458144069    -6.6767254076     3.1424052877
 F      0.2505220440    -6.8558162946     3.0571583576
 H      1.8008624785    -4.8248206130     3.4556721952
 F      2.4205637788    -5.4981902257     3.3970832622
 H     -0.1631702351    -5.1432855250     3.2224378646
 F      0.1532384192    -4.2934156193     3.3584367866
          6
Energy: -17.4101148522534 Kcal/mole
 H      0.9261815301    -6.6727406971     2.4143884244
 F      0.1467886592    -6.4126885801     2.0071923425
 H      1.7901736582    -5.4397804041     3.8594062468
 F      2.1651620181    -6.2534074021     3.6637436848
 H      0.0277817922    -4.9364683236     2.8976696930
 F      0.3673348280    -4.4019380537     3.5608967480
          6
Energy: -17.483745245742682 Kcal/mole
 H      0.9062433399    -6.4524575416     2.4535413601
 F      0.0223875286    -6.5587016744     2.2335411575
 H      1.5467181563    -5.0321186136     3.7757778502
 F      2.1372508171    -5.5603062383     3.3140658083
 H     -0.4967334119    -5.2973035077     3.3989225224
 F     -0.2357059488    -4.6689309142     4.0136594965
          6
Energy: -17.53337284585109 Kcal/mole
 H      0.7142954061    -5.7357139943     1.8284436394
 F     -0.1939253034    -5.7698650226     1.7065508583
 H      1.5450937084    -4.8110856468     3.4034698186
 F      2.0678747089    -5.2652824080     2.8023921800
 H     -0.4774540708    -4.7957793823     3.1425709825
 F     -0.1290402428    -4.3599702533     3.8702846676
          6
Energy: -17.557087779488313 Kcal/mole
 H      0.6693743095    -6.0585158545     2.2653748118
 F     -5.583359E-40    -6.4892643084     2.7198360534
 H      1.4282768964    -4.3382491150     2.9753849910
 F      1.7901771341    -4.6835536405     2.2068265986
 H     -0.0675851062    -5.2307957688     3.9717072719
 F      0.2688758900    -4.4362759363     4.2822249586
          6
Energy: -17.50362161980911 Kcal/mole
 H      0.4029667453    -5.6953380082     2.0723367585
 F     -0.3036764522    -6.1260151943     2.4673830253
 H      1.3474279838    -4.1864764253     2.9673099423
 F      1.6443684616    -4.4650294869     2.1456509227
 H     -0.2486644999    -5.0950176680     3.8602292309
 F      0.1591469508    -4.4107547151     4.3145012110
          6
Energy: -17.55952352533376 Kcal/mole
 H      0.2151926876    -5.3256333323     1.8142723242
 F     -0.5157032181    -5.6875421595     2.2334407579
 H      1.3835427944    -3.9937599028     2.8058535024
 F      1.5827033240    -4.2121894473     1.9378024569
 H     -0.2303032644    -4.8076448937     3.7133232200
 F      0.2712663618    -4.2010918113     4.1838657456
          6
Energy: -17.53901819703873 Kcal/mole
 H      0.2958641877    -5.4275349984     1.7815283144
 F     -0.2606155425    -6.0007529498     2.2316843874
 H      1.1627785455    -3.8731635465     2.7358550890
 F      1.3322401820    -4.0226119734     1.8471273909
 H     -0.0338999433    -5.1265162123     3.8046268516
 F      0.3641856526    -4.4112101307     4.2178508442
          6
Energy: -17.553933977807162 Kcal/mole
 H      0.4790982647    -5.6363359409     1.8407292573
 F     -0.1011601732    -6.1746007603     2.3038276588
 H      1.2922628025    -4.0135724157     2.6966317141
 F      1.4794485230    -4.2055485623     1.8197077350
 H      0.0251201125    -5.1849916875     3.7409791306
 F      0.3925302316    -4.4614827492     4.1681016196
          6
Energy: -17.51735689897953 Kcal/mole
 H      0.7537343034    -5.6889242723     1.8361242975
 F      0.2719640760    -6.3143759056     2.3025969146
 H      1.2253694374    -3.9434948065     2.7622443096
 F      1.4719006316    -4.0524763576     1.8857544968
 H      0.2752331273    -5.3782235727     3.8173554894
 F      0.5112932356    -4.6013110018     4.2434675434
          6
Energy: -17.569068195316106 Kcal/mole
 H      0.7970304468    -5.7091783462     1.8272548839
 F      0.4155882336    -6.3899815473     2.3088126056
 H      1.2021714839    -3.9111574418     2.7022739479
 F      1.4035645128    -4.0386650697     1.8167957422
 H      0.3655970038    -5.4109976585     3.7993605351
 F      0.5534030179    -4.6016784746     4.1874589241
          6
Energy: -17.575735124929906 Kcal/mole
 H      0.7911504241    -5.7040097275     1.8335227888
 F      0.3790107926    -6.3709991971     2.3090803264
 H      1.3070991645    -3.9710096293     2.7417285884
 F      1.4869417370    -4.0829593448     1.8495330323
 H      0.3943788285    -5.4333422041     3.8129420464
 F      0.6418839399    -4.6529654881     4.2260309000
          6
Energy: -17.58013704918119 Kcal/mole
 H      0.7889068949    -5.7006151848     1.8363667196
 F      0.3791298066    -6.3711792697     2.3089294625
 H      1.3109739000    -3.9698961146     2.7423600833
 F      1.4867361913    -4.0830184142     1.8494995330
 H      0.4072492167    -5.4350398063     3.8086756533
 F      0.6412011955    -4.6528754342     4.2262572223
