          6
Energy: -17.580185597201762 Kcal/mole
 H      5.9575730893     3.8019607010     3.4702215688
 F      5.6791390005     4.6530298902     3.6678188698
 H      5.6873504794     3.0342468954     1.6146939442
 F      6.0921665228     2.5225833893     2.2590645111
 H      5.0649116570     4.9159932906     2.0310835856
 F      4.9390753910     4.5753530638     1.1890512406
