          6
Energy: -17.580166341444624 Kcal/mole
 H      5.9183823697     3.8327187107     3.4808154308
 F      5.5752267262     4.6594383491     3.6799833092
 H      5.8500553158     3.1187548724     1.5902169130
 F      6.2285522325     2.6081670882     2.2512231148
 H      5.0875256680     4.9436423835     2.0091148420
 F      5.0525332514     4.6272510935     1.1491374688
