          6
Energy: -17.580020067375813 Kcal/mole
 H      6.4920793293     3.9817330527     3.3430060186
 F      6.1898532692     4.7964343322     3.6359398574
 H      5.8444985853     3.2171010387     1.5855905978
 F      6.4447910827     2.7411446017     2.0895780853
 H      5.1667116925     5.0135958826     2.2133074559
 F      4.8696178051     4.6724920148     1.4156406248
