          6
Energy: -17.58013704918119 Kcal/mole
 H      0.7889068949    -5.7006151848     1.8363667196
 F      0.3791298066    -6.3711792697     2.3089294625
 H      1.3109739000    -3.9698961146     2.7423600833
 F      1.4867361913    -4.0830184142     1.8494995330
 H      0.4072492167    -5.4350398063     3.8086756533
 F      0.6412011955    -4.6528754342     4.2262572223
