          6
Energy: -17.580142861181514 Kcal/mole
 H      7.3934397788     4.1748385448     2.0651465807
 F      7.3104367312     5.0725288076     1.8973619386
 H      5.7726946592     2.9614475568     2.0100896400
 F      6.5951783982     2.6058344285     2.2048941629
 H      5.5720647540     4.9435876301     1.6369322675
 F      4.8312749506     4.4038153987     1.6092663042
