          6
Energy: -17.580371816661568 Kcal/mole
 H      5.9587926498     3.8061398549     3.4676372537
 F      5.6847806784     4.6592388381     3.6626463932
 H      5.6901876148     3.0364160210     1.6147833521
 F      6.0898278861     2.5240234568     2.2617999776
 H      5.0785616252     4.9217393133     2.0260352786
 F      4.9529250620     4.5810439165     1.1839954336
