          6
Energy: -17.57874150466006 Kcal/mole
 H      5.9110626366     3.7894172086     3.4938250737
 F      5.6164622015     4.6388220860     3.6744100616
 H      5.7286290779     3.0268474102     1.6170776772
 F      6.1006452040     2.5113230522     2.2779313964
 H      5.0821131029     4.8996376412     2.0166846863
 F      4.9970419752     4.5656646073     1.1669118249
          6
Energy: -17.57861793026956 Kcal/mole
 H      5.9236894854     3.7902046446     3.4863884642
 F      5.6309763942     4.6386118109     3.6745727527
 H      5.7125929476     3.0158163218     1.6178019676
 F      6.1014958837     2.5119082259     2.2778929745
 H      5.0692999333     4.9011483557     2.0181807078
 F      4.9714450634     4.5615579133     1.1720177472
          6
Energy: -17.57741291977476 Kcal/mole
 H      5.9249969734     3.7906573125     3.4863867645
 F      5.6309070350     4.6385877979     3.6745728428
 H      5.7154924177     3.0397210765     1.6192007232
 F      6.1147602972     2.5234844747     2.2633854260
 H      5.0588362883     4.9031654395     2.0242781985
 F      4.9597734976     4.5596187791     1.1798545752
          6
Energy: -17.579255283053214 Kcal/mole
 H      5.9247933694     3.7924904611     3.4780144033
 F      5.6309178357     4.6384905536     3.6750169772
 H      5.7151017215     3.0340682145     1.6149537739
 F      6.1147810227     2.5237843460     2.2636107168
 H      5.0481556078     4.8989887192     2.0343982757
 F      4.9443642442     4.5635250712     1.1872970458
          6
Energy: -17.578554224514846 Kcal/mole
 H      5.9284834487     3.7944302639     3.4752556005
 F      5.6307220855     4.6383876516     3.6751633254
 H      5.7135055468     3.0300147879     1.6127678235
 F      6.1148656961     2.5239993709     2.2637266764
 H      5.0412258922     4.8952359512     2.0366916183
 F      4.9447318496     4.5637241469     1.1871753893
          6
Energy: -17.579398386808634 Kcal/mole
 H      5.9267778510     3.7930462558     3.4786002082
 F      5.6308125636     4.6384610700     3.6749859016
 H      5.7152887290     3.0342276679     1.6149640340
 F      6.1147711024     2.5237758873     2.2636101726
 H      5.0448709290     4.8995938167     2.0345541565
 F      4.9445384888     4.5634929722     1.1872887767
          6
Energy: -17.57835512298277 Kcal/mole
 H      5.9357972770     3.7947426451     3.4852341129
 F      5.6303341038     4.6383710805     3.6746339883
 H      5.7111265358     3.0309773649     1.6149922222
 F      6.1149918971     2.5239483084     2.2636086772
 H      5.0521727270     4.8965197577     2.0348698619
 F      4.9441511453     4.5636560439     1.1872720293
          6
Energy: -17.57928073856249 Kcal/mole
 H      5.9259318848     3.7901921526     3.4802286374
 F      5.6248484618     4.6334967833     3.6779027940
 H      5.7137943164     3.0319440164     1.6140939415
 F      6.1148503775     2.5238970298     2.2636563289
 H      5.0467977612     4.8910866430     2.0376474565
 F      4.9444362748     4.5639442581     1.1871246843
          6
Energy: -17.578785333262203 Kcal/mole
 H      5.9250908971     3.7908115123     3.4763484403
 F      5.6248930743     4.6334639277     3.6781086295
 H      5.7082003033     3.0329786764     1.6183983228
 F      6.1151471270     2.5238421434     2.2634279915
 H      5.0303160890     4.8974724134     2.0282940956
 F      4.9314699352     4.5524234671     1.1844578185
          6
Energy: -17.578349543025922 Kcal/mole
 H      5.9314109385     3.7922698950     3.4798019635
 F      5.6245578107     4.6333865639     3.6779254281
 H      5.7085545313     3.0331683426     1.6183246858
 F      6.1151283360     2.5238320821     2.2634318977
 H      5.0366447231     4.8979479471     2.0273326087
 F      4.9311342158     4.5523982411     1.1845088231
          6
Energy: -17.577492219259796 Kcal/mole
 H      5.9410502443     3.7990648172     3.4835747918
 F      5.6392810137     4.6445260005     3.6707103550
 H      5.7063159753     3.0381934004     1.6177239133
 F      6.1162640007     2.5302916742     2.2618259650
 H      5.0450323827     4.8948452085     2.0275046937
 F      4.9306892698     4.5525628342     1.1844996944
          6
Energy: -17.57904461632768 Kcal/mole
 H      5.9360384260     3.8000127890     3.4716812371
 F      5.6395468791     4.6444757128     3.6713412806
 H      5.7217386985     3.0407819128     1.6101953012
 F      6.1154458609     2.5301543596     2.2622253405
 H      5.0558944269     4.9079621036     2.0223227711
 F      4.9515134949     4.5679714720     1.1771009118
          6
Energy: -17.57952981022305 Kcal/mole
 H      5.9326922506     3.7976331733     3.4768929087
 F      5.6397243859     4.6446019459     3.6710648134
 H      5.7179418700     3.0420427030     1.6134969892
 F      6.1156472738     2.5300874776     2.2620501936
 H      5.0518234559     4.9082425612     2.0227022402
 F      4.9517294505     4.5679565943     1.1770807818
          6
Energy: -17.578906810174146 Kcal/mole
 H      5.9365368165     3.7990699093     3.4764727958
 F      5.6395204406     4.6445257304     3.6710870994
 H      5.7177836441     3.0365991721     1.6093351383
 F      6.1156556674     2.5303762443     2.2622709702
 H      5.0646458829     4.9085656339     2.0217224453
 F      4.9677405963     4.5768164513     1.1723457060
          6
Energy: -17.57838412876805 Kcal/mole
 H      5.9389335158     3.8005776226     3.4736243280
 F      5.6393933012     4.6444457497     3.6712382041
 H      5.7223012084     3.0398934517     1.6091616187
 F      6.1154160210     2.5302014904     2.2622801750
 H      5.0613363795     4.9171511523     2.0186885096
 F      4.9679161578     4.5763610094     1.1725066493
          6
Energy: -17.579032176789042 Kcal/mole
 H      5.9353126383     3.7993856924     3.4732648022
 F      5.6395853804     4.6445089788     3.6712572761
 H      5.7056703683     3.0384611450     1.6129036454
 F      6.1092289706     2.5302709772     2.2608019460
 H      5.0453450519     4.9025658586     2.0322577803
 F      4.9437047668     4.5722424234     1.1828787832
          6
Energy: -17.578626908659203 Kcal/mole
 H      5.9394561989     3.8017284579     3.4695506769
 F      5.6393655741     4.6443847005     3.6714543018
 H      5.7028323566     3.0359283503     1.6126965199
 F      6.1093795205     2.5304053361     2.2608129335
 H      5.0535223215     4.9129640546     2.0271104969
 F      4.9432709816     4.5716908231     1.1831518347
          6
Energy: -17.57868471212163 Kcal/mole
 H      5.9533779180     3.8057495891     3.4598561122
 F      5.6634515698     4.6524316925     3.6597589095
 H      5.7046233881     3.0334851918     1.6096822529
 F      6.1092845104     2.5305349400     2.2609728334
 H      5.0628830724     4.9083016926     2.0277045271
 F      4.9427744154     4.5719381506     1.1831203228
          6
Energy: -17.57845400302722 Kcal/mole
 H      5.9523610362     3.8042323680     3.4648827722
 F      5.6635055131     4.6525121775     3.6594922568
 H      5.7048667707     3.0367308030     1.6120505110
 F      6.1092715996     2.5303627678     2.2608472028
 H      5.0560183090     4.9102776884     2.0278619812
 F      4.9431385752     4.5718333286     1.1831119702
          6
Energy: -17.57918790636279 Kcal/mole
 H      5.9638433456     3.8124279519     3.4614909155
 F      5.6802047031     4.6624152059     3.6563236347
 H      5.6900348153     3.0379133163     1.6143620734
 F      6.0949113039     2.5284572557     2.2604414426
 H      5.0659685995     4.9153368091     2.0244204189
 F      4.9426107353     4.5715649540     1.1832945371
          6
Energy: -17.578296660076717 Kcal/mole
 H      5.9616225517     3.8109721177     3.4646552838
 F      5.6803225111     4.6624924346     3.6561557723
 H      5.6828485021     3.0332844395     1.6152756953
 F      6.0952925212     2.5287028069     2.2603929770
 H      5.0694770106     4.9152595804     2.0239295863
 F      4.9424246222     4.5715690508     1.1833205747
          6
Energy: -17.57981046874528 Kcal/mole
 H      5.9595599845     3.8062191615     3.4599925454
 F      5.6812744815     4.6572012155     3.6581735800
 H      5.6968175541     3.0349424757     1.6102157026
 F      6.1027462224     2.5271892810     2.2569750161
 H      5.0709595826     4.9136827423     2.0243471666
 F      4.9423459752     4.5716526984     1.1832984230
          6
Energy: -17.578807172865197 Kcal/mole
 H      5.9688111421     3.8092753280     3.4601121707
 F      5.6807837290     4.6570390930     3.6581672342
 H      5.6938010473     3.0356117273     1.6126469631
 F      6.1029062411     2.5271537788     2.2568460433
 H      5.0634317442     4.9176714711     2.0238306242
 F      4.9427453096     4.5714411056     1.1833258244
          6
Energy: -17.579682935862195 Kcal/mole
 H      5.9643376089     3.8081658680     3.4584194774
 F      5.6810210396     4.6570979473     3.6582570276
 H      5.6924434868     3.0347670617     1.6128445336
 F      6.1029782566     2.5271985863     2.2568355626
 H      5.0688453105     4.9161719727     2.0236512038
 F      4.9424581324     4.5715206505     1.1833353422
          6
Energy: -17.57985869658819 Kcal/mole
 H      5.9631214532     3.8064990343     3.4638655499
 F      5.6810855539     4.6571863689     3.6579681261
 H      5.6966101213     3.0344839927     1.6099862011
 F      6.1027572263     2.5272136025     2.2569871906
 H      5.0653406168     4.9123665639     2.0257196438
 F      4.9426440483     4.5717225186     1.1832256163
          6
Energy: -17.57987620687055 Kcal/mole
 H      5.9629540320     3.8075809352     3.4589494779
 F      5.6810944352     4.6571289766     3.6582289123
 H      5.6977576983     3.0364714499     1.6108289204
 F      6.1026963499     2.5271081725     2.2569424863
 H      5.0644925017     4.9151028914     2.0247310451
 F      4.9426890389     4.5715773628     1.1832780591
          6
Energy: -17.580022810054004 Kcal/mole
 H      5.9612289495     3.8068723385     3.4595404620
 F      5.6811859468     4.6571665660     3.6581975620
 H      5.6973578871     3.0351932982     1.6100737900
 F      6.1027175590     2.5271759755     2.2569825442
 H      5.0686556990     4.9141713668     2.0244972818
 F      4.9424681909     4.5716267780     1.1832904597
          6
Energy: -17.579018775340046 Kcal/mole
 H      5.9584846789     3.8058610457     3.4600237540
 F      5.6813315240     4.6572202127     3.6581719245
 H      5.6761123812     3.0299254565     1.6160256063
 F      6.0820197232     2.5211484752     2.2619932627
 H      5.0549397165     4.9103061304     2.0317149838
 F      4.9300208413     4.5703390100     1.1892741065
          6
Energy: -17.579545700990593 Kcal/mole
 H      5.9585955566     3.8047037336     3.4652268512
 F      5.6813256422     4.6572816055     3.6578959122
 H      5.6771932837     3.0327856893     1.6176088385
 F      6.0819623838     2.5209967465     2.2619092759
 H      5.0624611037     4.9116375839     2.0300241370
 F      4.9296218491     4.5702683794     1.1893638021
          6
Energy: -17.579363546591196 Kcal/mole
 H      5.9574771768     3.8052851175     3.4610956968
 F      5.6813849697     4.6572507644     3.6581150604
 H      5.6752710514     3.0332020340     1.6191522674
 F      6.0820643538     2.5209746604     2.2618274006
 H      5.0629774107     4.9126891853     2.0295145024
 F      4.9295944602     4.5702125944     1.1893908370
          6
Energy: -17.5796035341711 Kcal/mole
 H      5.9569513424     3.8055101183     3.4593944649
 F      5.6814128640     4.6572388286     3.6582053068
 H      5.6768869117     3.0301252848     1.6156969122
 F      6.0819786362     2.5211378748     2.2620106992
 H      5.0603584457     4.9117695606     2.0302999745
 F      4.9297333903     4.5702613784     1.1893491695
          6
Energy: -17.57898312596535 Kcal/mole
 H      5.9606791513     3.8075701695     3.4658260233
 F      5.6808283952     4.6582775340     3.6629796041
 H      5.6779501299     3.0334041116     1.6176253787
 F      6.0819222349     2.5209639406     2.2619083985
 H      5.0639325550     4.9140637041     2.0288004599
 F      4.9295437920     4.5701396794     1.1894287153
          6
Energy: -17.57731040091852 Kcal/mole
 H      5.9415317111     3.7952043240     3.4793223152
 F      5.6610275383     4.6468176536     3.6715751328
 H      5.6837118634     3.0307273480     1.6119430805
 F      6.0816165882     2.5211059367     2.2622098313
 H      5.0570311763     4.9101956510     2.0314466553
 F      4.9299098942     4.5703448707     1.1892883407
          6
Energy: -17.578823259666024 Kcal/mole
 H      5.9409223556     3.7971045920     3.4702519387
 F      5.6610598632     4.6467168488     3.6720562953
 H      5.6807206549     3.0372307972     1.6189515199
 F      6.0817752649     2.5207609438     2.2618380497
 H      5.0447388247     4.9128635495     2.0350202537
 F      4.9314061173     4.5719390254     1.1913288609
          6
Energy: -17.579068868072568 Kcal/mole
 H      5.9464902283     3.7980479330     3.4741242593
 F      5.6607645004     4.6466668067     3.6718508776
 H      5.6759744939     3.0319532052     1.6177150394
 F      6.0820270378     2.5210409078     2.2619036422
 H      5.0593713015     4.9114221270     2.0335007820
 F      4.9306298982     4.5720154895     1.1914094654
          6
Energy: -17.579912752321604 Kcal/mole
 H      5.9400535905     3.7955211782     3.4745441305
 F      5.6604688532     4.6466117470     3.6704170954
 H      5.6793478730     3.0337897952     1.6170577201
 F      6.0818480879     2.5209434810     2.2619385115
 H      5.0550671144     4.9132163564     2.0334220507
 F      4.9308582254     4.5719203098     1.1914136419
          6
Energy: -17.57909530738499 Kcal/mole
 H      5.9455606931     3.7984803963     3.4697144696
 F      5.6601767141     4.6464547673     3.6706732978
 H      5.6753232118     3.0298804860     1.6164867605
 F      6.0820615868     2.5211508608     2.2619687995
 H      5.0585139992     4.9113028154     2.0336794493
 F      4.9306753761     4.5720218187     1.1913999875
          6
Energy: -17.579184276668343 Kcal/mole
 H      5.9444855502     3.7985058870     3.4724364866
 F      5.6658641590     4.6504223899     3.6660789210
 H      5.6761664279     3.0306741088     1.6174550931
 F      6.0823500079     2.5168257869     2.2592212509
 H      5.0539286707     4.9085600116     2.0354604044
 F      4.9309186172     4.5721673181     1.1913055119
          6
Energy: -17.579090307029105 Kcal/mole
 H      5.9433188911     3.7988108536     3.4694444612
 F      5.6659260475     4.6504062121     3.6662376411
 H      5.6757369396     3.0300863353     1.6172567723
 F      6.0823727913     2.5168569669     2.2592317714
 H      5.0607927077     4.9136522336     2.0323794651
 F      4.9305544959     4.5718971875     1.1914689487
          6
Energy: -17.579101177054383 Kcal/mole
 H      5.9447009123     3.7998532002     3.4669071413
 F      5.6658527345     4.6503509180     3.6663722400
 H      5.6721564074     3.0338099970     1.6206679239
 F      6.0809796486     2.5216446857     2.2621032296
 H      5.0599504815     4.9131814890     2.0327005753
 F      4.9305991740     4.5719221594     1.1914519145
          6
Energy: -17.579404464194056 Kcal/mole
 H      5.9461269299     3.7999240159     3.4686117860
 F      5.6657770876     4.6503471614     3.6662818126
 H      5.6749127321     3.0297234973     1.6156885203
 F      6.0808334320     2.5218614651     2.2623673754
 H      5.0528243244     4.9076461626     2.0319987060
 F      4.9305630331     4.5687862554     1.1887222745
          6
Energy: -17.579394420297604 Kcal/mole
 H      5.9432697436     3.7982796158     3.4716882749
 F      5.6659286547     4.6504343930     3.6661186119
 H      5.6734619130     3.0345755720     1.6204490572
 F      6.0809103946     2.5216040737     2.2621148400
 H      5.0579712190     4.9109117541     2.0299143429
 F      4.9302900022     4.5686130233     1.1888328452
          6
Energy: -17.57967044210642 Kcal/mole
 H      5.9414230470     3.7981579667     3.4696082515
 F      5.6660266177     4.6504408462     3.6662289524
 H      5.6762522452     3.0314974603     1.6162451446
 F      6.0807623739     2.5217673605     2.2623378478
 H      5.0555854403     4.9095917088     2.0308085885
 F      4.9304165623     4.5686830486     1.1887854075
          6
Energy: -17.579283063418984 Kcal/mole
 H      5.9434919340     3.7977952070     3.4741454130
 F      5.6659168680     4.6504600898     3.6659882664
 H      5.6750547687     3.0343284232     1.6192433618
 F      6.0808258973     2.5216171844     2.2621787993
 H      5.0587694063     4.9104347240     2.0299867678
 F      4.9302476602     4.5686383286     1.1888290032
          6
Energy: -17.579415768714966 Kcal/mole
 H      5.9487623904     3.8014803477     3.4742678505
 F      5.6672795809     4.6520717901     3.6695897033
 H      5.6763081111     3.0322818716     1.6168298058
 F      6.0807594104     2.5217257493     2.2623068329
 H      5.0559937804     4.9110350132     2.0301618709
 F      4.9303949008     4.5686064847     1.1888197144
          6
Energy: -17.578969275623024 Kcal/mole
 H      5.9493636622     3.8020603121     3.4726179361
 F      5.6672476848     4.6520410243     3.6696772274
 H      5.6773660080     3.0343283913     1.6177907635
 F      6.0807032914     2.5216171861     2.2622558563
 H      5.0533097856     4.9156157821     2.0286791471
 F      4.9305372805     4.5683634855     1.1888983695
          6
Energy: -17.579658369646154 Kcal/mole
 H      5.9421221596     3.7998239352     3.4720513384
 F      5.6676318298     4.6521596589     3.6697072841
 H      5.6775477097     3.0352057895     1.6183760052
 F      6.0806936525     2.5215706422     2.2622248106
 H      5.0573363166     4.9134576019     2.0309528150
 F      4.9313582031     4.5705936932     1.1898447036
          6
Energy: -17.579426914511885 Kcal/mole
 H      5.9449389503     3.8001232965     3.4747124205
 F      5.6674824056     4.6521437785     3.6695661199
 H      5.6801886589     3.0378875925     1.6188735906
 F      6.0805535563     2.5214283787     2.2621984148
 H      5.0518978222     4.9131812417     2.0318609476
 F      4.9316467027     4.5706083535     1.1897965293
          6
Energy: -17.579757973737685 Kcal/mole
 H      5.9444641323     3.8009222904     3.4705908592
 F      5.6675075936     4.6521013937     3.6697847592
 H      5.6757546431     3.0323852549     1.6172587872
 F      6.0807887706     2.5217202650     2.2622840764
 H      5.0516097254     4.9123302235     2.0333833517
 F      4.9297908116     4.5731018854     1.1901910326
          6
Energy: -17.57994235721293 Kcal/mole
 H      5.9423675297     3.7996692626     3.4730620180
 F      5.6676188135     4.6521678639     3.6696536699
 H      5.6764984231     3.0331273890     1.6173802006
 F      6.0807493147     2.5216808965     2.2622776357
 H      5.0544311199     4.9157353653     2.0315915819
 F      4.9296411432     4.5729212505     1.1902860819
          6
Energy: -17.57998289217261 Kcal/mole
 H      5.9465094915     3.8018238892     3.4695978740
 F      5.6673990920     4.6520535660     3.6698374347
 H      5.6769272359     3.0324928090     1.6166091015
 F      6.0807265672     2.5217145595     2.2623185407
 H      5.0548599926     4.9157531744     2.0315205924
 F      4.9296183925     4.5729203058     1.1902898477
          6
Energy: -17.57985296322164 Kcal/mole
 H      5.9476209055     3.8009433486     3.4749669718
 F      5.6673401341     4.6521002766     3.6695526165
 H      5.6758340492     3.0342973766     1.6187274980
 F      6.0807845582     2.5216188314     2.2622061647
 H      5.0523909184     4.9150922212     2.0321532092
 F      4.9297493711     4.5729553678     1.1902562888
          6
Energy: -17.5794698749757 Kcal/mole
 H      5.9453037173     3.8015909923     3.4689112666
 F      5.6674630555     4.6520659206     3.6698738577
 H      5.6751883450     3.0349995506     1.6196948021
 F      6.0808188114     2.5215815827     2.2621548515
 H      5.0534865620     4.9140777121     2.0324044541
 F      4.9296912498     4.5730091852     1.1902429609
          6
Energy: -17.579978884573734 Kcal/mole
 H      5.9519671627     3.8061858284     3.4710219173
 F      5.6747447192     4.6585335368     3.6647745967
 H      5.6719171063     3.0321820606     1.6195238864
 F      6.0809923430     2.5217310440     2.2621639181
 H      5.0605409101     4.9151757481     2.0308894883
 F      4.9293170329     4.5729509369     1.1903233263
          6
Energy: -17.579277144377613 Kcal/mole
 H      5.9544267262     3.8068881046     3.4714699792
 F      5.6746142451     4.6584962826     3.6647508281
 H      5.6712316609     3.0308015599     1.6188659745
 F      6.0810287043     2.5218042764     2.2621988188
 H      5.0650933242     4.9150511798     2.0302162351
 F      4.9290755379     4.5729575450     1.1903590408
          6
Energy: -17.57959295921262 Kcal/mole
 H      5.9557391542     3.8074537401     3.4708842511
 F      5.6745446238     4.6584662770     3.6647818996
 H      5.6734582199     3.0354361240     1.6211403593
 F      6.0809105905     2.5215584235     2.2620781680
 H      5.0576453701     4.9161276377     2.0309481516
 F      4.9294706346     4.5729004414     1.1903202144
          6
Energy: -17.579810290011324 Kcal/mole
 H      5.9488323590     3.8049196062     3.4721413949
 F      5.6749110133     4.6586007069     3.6647152110
 H      5.6741979126     3.0308899445     1.6170563163
 F      6.0808713515     2.5217995878     2.2622948170
 H      5.0590376141     4.9166584419     2.0305176360
 F      4.9293967793     4.5728722834     1.1903430522
          6
Energy: -17.579606179599864 Kcal/mole
 H      5.9530450073     3.8067365230     3.4701475720
 F      5.6746875421     4.6585043237     3.6648209787
 H      5.6720249159     3.0332234118     1.6202837794
 F      6.0809866240     2.5216758027     2.2621236076
 H      5.0605610193     4.9133056916     2.0316451680
 F      4.9293159662     4.5730501391     1.1902832393
          6
Energy: -17.58000179964847 Kcal/mole
 H      5.9497081893     3.8058591008     3.4692497814
 F      5.6748645525     4.6585508689     3.6648686044
 H      5.6727708869     3.0310750042     1.6181043228
 F      6.0809470519     2.5217897708     2.2622392227
 H      5.0596627961     4.9155255767     2.0308835864
 F      4.9293636148     4.5729323793     1.1903236394
          6
Energy: -17.580121446484327 Kcal/mole
 H      5.9516293900     3.8061674767     3.4706201118
 F      5.6747626373     4.6585345103     3.6647959116
 H      5.6753440883     3.0339230477     1.6187379098
 F      6.0808105495     2.5216386887     2.2622056124
 H      5.0564477152     4.9158010541     2.0312630803
 F      4.9295341674     4.5729177659     1.1903035081
          6
Energy: -17.579550552642047 Kcal/mole
 H      5.9526877518     3.7999689218     3.4719990015
 F      5.6793981564     4.6531355495     3.6677245811
 H      5.6763710964     3.0352317296     1.6191350394
 F      6.0807560691     2.5215692661     2.2621845456
 H      5.0566818720     4.9141172672     2.0319121974
 F      4.9295217460     4.5730070869     1.1902690740
          6
Energy: -17.579215873949295 Kcal/mole
 H      5.9533346825     3.7995337618     3.4748222415
 F      5.6793638382     4.6531586337     3.6675748147
 H      5.6744447074     3.0347152787     1.6199377068
 F      6.0808582596     2.5215966626     2.2621419659
 H      5.0576627830     4.9142279921     2.0317184870
 F      4.9294697109     4.5730012132     1.1902793498
          6
Energy: -17.579292405118906 Kcal/mole
 H      5.9545118732     3.8018976384     3.4662467104
 F      5.6793013910     4.6530332355     3.6680297268
 H      5.6782502628     3.0350488253     1.6178115665
 F      6.0806563837     2.5215789688     2.2622547528
 H      5.0583752370     4.9149170690     2.0313297959
 F      4.9294319169     4.5729646593     1.1902999690
          6
Energy: -17.57931904836977 Kcal/mole
 H      5.9545544446     3.8008566279     3.4707516192
 F      5.6792991326     4.6530884587     3.6677907518
 H      5.6703947269     3.0301095892     1.6188525801
 F      6.0810731017     2.5218409838     2.2621995294
 H      5.0585942513     4.9168613455     2.0305028738
 F      4.9294202987     4.5728615199     1.1903438353
          6
Energy: -17.579310978172828 Kcal/mole
 H      5.9572506553     3.8025261196     3.4673549448
 F      5.6791561049     4.6529998961     3.6679709376
 H      5.6829311815     3.0319340337     1.6156548534
 F      6.0924009563     2.5227060812     2.2590135371
 H      5.0613582554     4.9143889558     2.0310813918
 F      4.9292736746     4.5729926744     1.1903131463
          6
Energy: -17.57954360742059 Kcal/mole
 H      5.9609178117     3.8028832851     3.4709946306
 F      5.6789615707     4.6529809493     3.6677778606
 H      5.6834036524     3.0314376419     1.6149620220
 F      6.0923758928     2.5227324137     2.2590502902
 H      5.0551186373     4.9143467247     2.0320538083
 F      4.9296046720     4.5729949147     1.1902615618
          6
Energy: -17.579688706238358 Kcal/mole
 H      5.9591005959     3.8027660729     3.4689176439
 F      5.6790579698     4.6529871671     3.6678880400
 H      5.6813825314     3.0304586809     1.6154765083
 F      6.0924831086     2.5227843453     2.2590229979
 H      5.0582145535     4.9154792963     2.0311255963
 F      4.9294404407     4.5729348344     1.1903108013
          6
Energy: -17.5796311750251 Kcal/mole
 H      5.9613758162     3.8037331030     3.4680060748
 F      5.6789372746     4.6529358684     3.6679363966
 H      5.6835447297     3.0305321764     1.6141585146
 F      6.0923684090     2.5227804465     2.2590929144
 H      5.0577933048     4.9146480453     2.0315281152
 F      4.9294627870     4.5729789303     1.1902894486
          6
Energy: -17.57960012871206 Kcal/mole
 H      5.9579237349     3.8018664183     3.4711242695
 F      5.6791203996     4.6530348917     3.6677709836
 H      5.6868258376     3.0342398737     1.6150182777
 F      6.0921943538     2.5225837618     2.2590473060
 H      5.0558687500     4.9137340845     2.0321897951
 F      4.9295648802     4.5730274139     1.1902543480
          6
Energy: -17.579688369218445 Kcal/mole
 H      5.9563664817     3.8021382783     3.4677763934
 F      5.6792030083     4.6530204701     3.6679485807
 H      5.6842139186     3.0316614063     1.6146249339
 F      6.0923329101     2.5227205435     2.2590681719
 H      5.0572551610     4.9150830881     2.0314332107
 F      4.9294913343     4.5729558523     1.1902944831
          6
Energy: -17.579709397953536 Kcal/mole
 H      5.9608652660     3.8030024698     3.4704054415
 F      5.6789643582     4.6529746268     3.6678091158
 H      5.6848545024     3.0331694357     1.6154129068
 F      6.0922989286     2.5226405460     2.2590263718
 H      5.0561150281     4.9136244375     2.0321971749
 F      4.9295518157     4.5730332304     1.1902539566
          6
Energy: -17.579529876552954 Kcal/mole
 H      5.9583649659     3.8025805811     3.4686765774
 F      5.6790969933     4.6529970070     3.6679008280
 H      5.6812063029     3.0312771132     1.6162357653
 F      6.0924924571     2.5227409294     2.2589827211
 H      5.0564902276     4.9172646180     2.0306583564
 F      4.9295319123     4.5728401272     1.1903355873
          6
Energy: -17.579801804389263 Kcal/mole
 H      5.9588489870     3.8024495855     3.4699189841
 F      5.6790713171     4.6530039560     3.6678349212
 H      5.6848506096     3.0326760973     1.6150243664
 F      6.0922991351     2.5226667165     2.2590469830
 H      5.0566341022     4.9152204344     2.0314714270
 F      4.9295242800     4.5729485664     1.1902924558
          6
Energy: -17.57943623515115 Kcal/mole
 H      5.9565193361     3.8013389438     3.4714225222
 F      5.6791948997     4.6530628730     3.6677551620
 H      5.6851376270     3.0350272076     1.6167115683
 F      6.0922839095     2.5225419955     2.2589574808
 H      5.0588090643     4.9143494747     2.0314937237
 F      4.9294089033     4.5729947688     1.1902912730
          6
Energy: -17.57924081734933 Kcal/mole
 H      5.9609863209     3.8041184414     3.4658323529
 F      5.6789579365     4.6529154271     3.6680517075
 H      5.6870802873     3.0320909169     1.6131575167
 F      6.0921808558     2.5226977590     2.2591460150
 H      5.0550139336     4.9155353377     2.0315864031
 F      4.9296102262     4.5729318615     1.1902863566
          6
Energy: -17.579749167914883 Kcal/mole
 H      5.9580788374     3.8022487816     3.4696950702
 F      5.6791121718     4.6530146082     3.6678467993
 H      5.6834915999     3.0317424794     1.6151470514
 F      6.0923712274     2.5227162428     2.2590404748
 H      5.0583754559     4.9163233983     2.0307565221
 F      4.9294319053     4.5728900567     1.1903303799
          6
Energy: -17.57974209597944 Kcal/mole
 H      5.9596986870     3.8027875934     3.4696699182
 F      5.6790262425     4.6529860255     3.6678481336
 H      5.6856854466     3.0321528313     1.6140833339
 F      6.0922548489     2.5226944745     2.2590969026
 H      5.0571239990     4.9133827520     2.0321425976
 F      4.9294982921     4.5730460512     1.1902568518
          6
Energy: -17.57969210501949 Kcal/mole
 H      5.9603113613     3.8029973007     3.4696390841
 F      5.6789937415     4.6529749010     3.6678497692
 H      5.6846211619     3.0341357171     1.6163285955
 F      6.0923113067     2.5225892870     2.2589777966
 H      5.0568900632     4.9155650082     2.0312924080
 F      4.9295107019     4.5729302876     1.1903019524
          6
Energy: -17.5796798671372 Kcal/mole
 H      5.9601655471     3.8029928011     3.4694515774
 F      5.6790014766     4.6529751397     3.6678597160
 H      5.6814861559     3.0310021531     1.6158393993
 F      6.0924776116     2.5227555154     2.2590037474
 H      5.0586111035     4.9136749120     2.0317975418
 F      4.9294194047     4.5730305528     1.1902751562
          6
Energy: -17.579741880014353 Kcal/mole
 H      5.9597733372     3.8028266163     3.4696082608
 F      5.6790222825     4.6529839554     3.6678514043
 H      5.6851343859     3.0338844031     1.6158034599
 F      6.0922840814     2.5226026187     2.2590056539
 H      5.0567749324     4.9145790048     2.0317108352
 F      4.9295168093     4.5729825928     1.1902797558
          6
Energy: -17.579782715338865 Kcal/mole
 H      5.9585269439     3.8024253850     3.4695683451
 F      5.6790884007     4.6530052398     3.6678535218
 H      5.6830927362     3.0314385044     1.6151602345
 F      6.0923923862     2.5227323679     2.2590397755
 H      5.0566461510     4.9150233126     2.0315497860
 F      4.9295236409     4.5729590233     1.1902882990
          6
Energy: -17.579800210008386 Kcal/mole
 H      5.9588464405     3.8024999725     3.4696989790
 F      5.6790714522     4.6530012831     3.6678465920
 H      5.6841239879     3.0314542437     1.6145183331
 F      6.0923376807     2.5227315330     2.2590738269
 H      5.0578845188     4.9150301176     2.0313589074
 F      4.9294579483     4.5729586623     1.1902984247
          6
Energy: -17.579779980889214 Kcal/mole
 H      5.9575772030     3.8019072860     3.4704575846
 F      5.6791387823     4.6530327238     3.6678063497
 H      5.6845004614     3.0321671146     1.6148431611
 F      6.0923177096     2.5226937168     2.2590565955
 H      5.0585407467     4.9145624451     2.0314485016
 F      4.9294231370     4.5729834712     1.1902936719
          6
Energy: -17.580083126779186 Kcal/mole
 H      5.9590488894     3.8020885091     3.4717628126
 F      5.6790607127     4.6530231103     3.6677371103
 H      5.6863344277     3.0347154336     1.6157061670
 F      6.0922204220     2.5225585344     2.2590108150
 H      5.0645936189     4.9160330940     2.0311149472
 F      4.9390922622     4.5753509523     1.1890495769
          6
Energy: -17.580093812104906 Kcal/mole
 H      5.9588131474     3.8022519003     3.4707196964
 F      5.6790732183     4.6530144428     3.6677924453
 H      5.6861348265     3.0343248855     1.6155213598
 F      6.0922310103     2.5225792521     2.2590206186
 H      5.0656478319     4.9171692425     2.0304964241
 F      4.9390363386     4.5752906823     1.1890823882
          6
Energy: -17.580129866565642 Kcal/mole
 H      5.9573089350     3.8018336745     3.4703967746
 F      5.6791530133     4.6530366287     3.6678095755
 H      5.6863614473     3.0332804265     1.6145494420
 F      6.0922189886     2.5226346582     2.2590721766
 H      5.0661808620     4.9151271167     2.0312428255
 F      4.9390080626     4.5753990123     1.1890427933
          6
Energy: -17.580134722389403 Kcal/mole
 H      5.9572732463     3.8018180175     3.4704140033
 F      5.6791549065     4.6530374592     3.6678086616
 H      5.6866834117     3.0329183154     1.6140601923
 F      6.0922019092     2.5226538674     2.2590981302
 H      5.0655996131     4.9153654109     2.0312342242
 F      4.9390388965     4.5753863714     1.1890432496
          6
Energy: -17.58016863081582 Kcal/mole
 H      5.9577348148     3.8019428155     3.4705268089
 F      5.6791304214     4.6530308390     3.6678026775
 H      5.6866393515     3.0341172825     1.6150383040
 F      6.0922042465     2.5225902649     2.2590462436
 H      5.0658247720     4.9159940441     2.0309462885
 F      4.9390269524     4.5753530238     1.1890585239
          6
Energy: -17.580174534521348 Kcal/mole
 H      5.9579326784     3.8020567492     3.4703149696
 F      5.6791199252     4.6530247951     3.6678139151
 H      5.6875135240     3.0343357020     1.6146620599
 F      6.0921578736     2.5225786783     2.2590662025
 H      5.0649525600     4.9163997161     2.0309129329
 F      4.9390732212     4.5753315039     1.1890602933
          6
Energy: -17.580185597201762 Kcal/mole
 H      5.9575730893     3.8019607010     3.4702215688
 F      5.6791390005     4.6530298902     3.6678188698
 H      5.6873504794     3.0342468954     1.6146939442
 F      6.0921665228     2.5225833893     2.2590645111
 H      5.0649116570     4.9159932906     2.0310835856
 F      4.9390753910     4.5753530638     1.1890512406
