          6
Energy: -0.07656796833914825 Kcal/mole
 H      0.4560616834     4.5479840557    -2.4500008293
 F      1.3730616834     4.5479840557    -2.4500008293
 H     -4.2060283044    -1.6997307630     4.2392887363
 F     -3.2890283044    -1.6997307630     4.2392887363
 H      1.4211311537    -3.9173861134     0.3610878703
 F      2.3223965423    -3.9173861134     0.1919438509
