          6
Energy: -17.579945164506285 Kcal/mole
 H     -5.6228227118    -1.6054313139    -5.9265139473
 F     -5.5262387964    -1.1891571142    -6.7378562536
 H     -6.9466851081    -0.9012598462    -4.5623344669
 F     -6.4438248786    -1.6411087422    -4.3607303977
 H     -6.7454961798     0.0279271398    -6.3463429620
 F     -7.3462833616     0.3510448015    -5.7335308058
