          6
Energy: -17.578131120669752 Kcal/mole
 H     -1.1678302022    -6.9559632938    -4.1012440803
 F     -1.3396439513    -6.6537524171    -3.2526937744
 H      0.6921485751    -6.8400329729    -4.8793170167
 F      0.0146500467    -7.1990919099    -5.3822697221
 H      0.3270470741    -6.1688483042    -3.0043220767
 F      1.1768892589    -6.1094867141    -3.3436352984
