          6
Energy: -17.580311957519484 Kcal/mole
 H      5.9185121479     3.7939368994     3.4851593280
 F      5.6160670222     4.6385823269     3.6748697594
 H      5.7331880983     3.0280829202     1.6189778543
 F      6.1235350584     2.5221268577     2.2766454858
 H      5.0592266057     4.8955597735     2.0190686403
 F      4.9711898743     4.5569188558     1.1714479333
