          6
Energy: -17.567387178946262 Kcal/mole
 H      7.3714943494     4.2568363180     2.0345431549
 F      7.2579052821     5.1413159603     1.8208090068
 H      5.8026491024     3.0427138817     2.2610619673
 F      6.6448653756     2.6974017293     2.3720586638
 H      5.4899279775     4.9938006191     1.8207376229
 F      4.7751886529     4.4286081893     1.9236658269
          6
Energy: -17.54761026762702 Kcal/mole
 H      7.3432188536     4.2110546997     1.9193552681
 F      7.1896201469     5.0694194514     1.6356187877
 H      5.7760868344     2.9162153001     2.1113347009
 F      6.6310029378     2.6215441184     2.2635725109
 H      5.4525106707     4.8223081852     1.5569135652
 F      4.7249453783     4.2765683299     1.6739851487
          6
Energy: -17.56471121809119 Kcal/mole
 H      7.2997443405     4.2127800582     1.9590134751
 F      7.1641929854     5.1123595387     1.8438110951
 H      5.7598377990     2.8987892388     2.1325115589
 F      6.6235250192     2.5922509727     2.1636190683
 H      5.4037776214     4.8942330784     1.8695560510
 F      4.6966496540     4.3168669825     1.9562014725
          6
Energy: -17.56358897480345 Kcal/mole
 H      7.2309942793     4.2500889418     2.3625329348
 F      7.0857112498     5.1539359848     2.3092191070
 H      5.7471063091     2.9202340575     1.8771507249
 F      6.5610546013     2.6056342957     2.1589381757
 H      5.4272028880     4.9388534706     1.7205267672
 F      4.7595537074     4.3502905121     1.4997843483
          6
Energy: -17.561854250525585 Kcal/mole
 H      7.2563045812     4.2365821712     2.6345211514
 F      7.1422785379     5.1433512661     2.5593089843
 H      5.9375036647     2.9805374082     1.7664073069
 F      6.6490886880     2.6296641220     2.2262156275
 H      5.6752161509     4.9903950506     1.5990950498
 F      5.0823538098     4.4256369624     1.1862372700
          6
Energy: -17.55933557680629 Kcal/mole
 H      7.2361407564     4.3637140048     2.6228768702
 F      7.0923046962     5.2693103764     2.6131096039
 H      5.9453391013     3.0790380166     1.7965681152
 F      6.7192794564     2.7669156070     2.1766798464
 H      5.5528926554     5.0810390463     1.7678632441
 F      4.9394402552     4.5024971682     1.4075100175
          6
Energy: -17.568303014416074 Kcal/mole
 H      7.3956395334     4.3791822657     2.3870484544
 F      7.1890582319     5.2622805047     2.5225130850
 H      6.0730604422     3.1175858904     1.5862148465
 F      6.8983759045     2.7966854524     1.8244716334
 H      5.5780772863     5.0590464935     1.8309397755
 F      4.9699715789     4.4811933440     1.4605586391
          6
Energy: -17.560536332083984 Kcal/mole
 H      7.2813534316     4.3144087336     2.6428616999
 F      7.0404753397     5.1746431045     2.8498968951
 H      6.0425543375     3.0997132888     1.5804045928
 F      6.8605693326     2.7948098184     1.8610722638
 H      5.4696523697     5.0193958395     2.0005192427
 F      4.9185204895     4.4781536467     1.5063537449
          6
Energy: -17.557918595223214 Kcal/mole
 H      7.2482413387     4.3069916508     2.8192806988
 F      6.9536631439     5.1557463206     3.0029330818
 H      6.0560635618     3.0613360176     1.7747986182
 F      6.8909152915     2.7692458580     2.0168625109
 H      5.3948550954     4.8970182048     2.2205143152
 F      4.8460956679     4.3295563358     1.7538890717
          6
Energy: -17.55525726007278 Kcal/mole
 H      7.1362621403     4.2476741457     2.9108445069
 F      6.7947940053     5.0445697282     3.2095851024
 H      6.0547382738     3.0612416845     1.6748757907
 F      6.9055607211     2.8143029602     1.9115431300
 H      5.2692644152     4.8098747206     2.3361313804
 F      4.7841677980     4.2864537222     1.7602835442
          6
Energy: -17.54786278010073 Kcal/mole
 H      7.2875248712     4.3429647336     2.6194454626
 F      6.9687964237     5.1441919526     2.9314328348
 H      6.0470518907     3.0937269692     1.6757759938
 F      6.9144767459     2.8283543238     1.8100908468
 H      5.3399857707     4.8454048332     2.3534536401
 F      4.7766897728     4.2776799712     1.9048167048
          6
Energy: -17.548305567683144 Kcal/mole
 H      7.2387912815     4.3528101505     2.6344204863
 F      6.9132880571     5.1267826067     3.0030711175
 H      6.0580480542     3.0706594134     1.6434891878
 F      6.9442514075     2.8703311004     1.7675906932
 H      5.2596707005     4.7686997039     2.4385450418
 F      4.7306193821     4.2040876612     1.9463997952
          6
Energy: -17.550315615659144 Kcal/mole
 H      7.2815329308     4.3565395435     2.7997916999
 F      6.9390739478     5.1752244647     3.0308021861
 H      6.1339887517     3.0123347374     1.7561266705
 F      7.0101651243     2.8216385882     1.9480614059
 H      5.3715039026     4.8182125541     2.3179859764
 F      4.8282777077     4.2283773533     1.8731391072
          6
Energy: -17.559109095275517 Kcal/mole
 H      7.2385535110     4.3895272107     2.7169674538
 F      6.9059944134     5.1941287541     3.0049080778
 H      5.9760063642     2.9780997049     1.9490536275
 F      6.8672431170     2.7791267661     2.0326946460
 H      5.2397909928     4.7837520528     2.5503065263
 F      4.6735177770     4.1629911348     2.1830470433
          6
Energy: -17.56171022100216 Kcal/mole
 H      7.1851200912     4.3720810399     2.6708723481
 F      6.9441718568     5.2093046965     2.9570357581
 H      5.7864809736     3.0074245707     2.1199356472
 F      6.6723862868     2.7706564512     2.1212137756
 H      5.2119593890     4.8763351957     2.6861006768
 F      4.5842960464     4.2671239063     2.4108020513
          6
Energy: -17.564558423648805 Kcal/mole
 H      7.1699702438     4.3074385773     2.7130129402
 F      6.9571291665     5.1610689749     2.9716687346
 H      5.7672297482     2.9866507861     2.1032346513
 F      6.6510961435     2.7443315416     2.1340661115
 H      5.2552817561     4.8706202898     2.6615965628
 F      4.6015981799     4.2926623473     2.3795479874
          6
Energy: -17.54921562094455 Kcal/mole
 H      7.1494366837     4.1308161562     2.9646530454
 F      6.9230022672     4.9528433271     3.3021256893
 H      5.7145515436     2.9195057685     2.1115209451
 F      6.5809536919     2.6266375178     2.1783378979
 H      5.2314730824     4.7714927964     2.8325317875
 F      4.5906161841     4.2600759521     2.4218686078
          6
Energy: -17.571750180708477 Kcal/mole
 H      7.1504416560     4.0654624510     2.9776116705
 F      6.9011917981     4.8406473409     3.3993365746
 H      5.7537294510     2.9674410382     1.9775900423
 F      6.6227561100     2.6752456959     1.9950126658
 H      5.2130162798     4.6684291106     2.9293494081
 F      4.5802022539     4.1695717689     2.4916545815
          6
Energy: -17.53944244119191 Kcal/mole
 H      7.2150652891     4.1849318156     2.8067467275
 F      6.9757736786     5.0017365860     3.1480068807
 H      5.7976709162     3.0151888038     1.8949519394
 F      6.6600154311     2.7135842298     1.9742338328
 H      5.3027747940     4.8420278688     2.6678241327
 F      4.6386102387     4.3326217215     2.2932846547
          6
Energy: -17.54464452159283 Kcal/mole
 H      7.0928599065     4.0367312162     3.0079178131
 F      6.9357767574     4.8975833365     3.2820482770
 H      5.6735311456     3.0340144454     1.9911596805
 F      6.4714393843     2.6227000668     2.1783812723
 H      5.2977801241     4.8973936406     2.5969784857
 F      4.6695119865     4.4310251152     2.1187854853
          6
Energy: -17.566228199950217 Kcal/mole
 H      7.1216400083     4.0822918691     2.8882614017
 F      7.0180727101     4.9773565720     3.0586198248
 H      5.6619588036     3.0056925117     2.0224968399
 F      6.4600588510     2.5997794013     2.2203853467
 H      5.3829109952     4.9810641244     2.3894317297
 F      4.7016141648     4.4926526586     2.0177088907
          6
Energy: -17.57137729816668 Kcal/mole
 H      7.1429518172     4.0754070595     2.9415035211
 F      7.0323291380     4.9576752666     3.1656785279
 H      5.7846720524     3.1253716684     1.7867581331
 F      6.5326849941     2.6733680851     2.0643520806
 H      5.4919240022     5.0583181340     2.3171875484
 F      4.8566259571     4.6333409699     1.8105517780
          6
Energy: -17.565513210358688 Kcal/mole
 H      7.0054296243     4.0624405687     3.0652092355
 F      6.9311455660     4.9561145952     3.2568276404
 H      5.7519414515     3.1664562597     1.7404151045
 F      6.3959383679     2.6657639558     2.1592995616
 H      5.5546004957     5.1611623947     2.1592196833
 F      4.9809029975     4.7717427533     1.5591259210
          6
Energy: -17.56572910125766 Kcal/mole
 H      7.1635964351     4.2007096202     2.8308576968
 F      6.9672326075     5.0254474988     3.1803397117
 H      5.7811980055     3.1884143366     1.7166291946
 F      6.6021435826     2.8124676540     1.8766337293
 H      5.3320577055     5.0033973218     2.5068844986
 F      4.7101037253     4.5738573151     1.9876951024
          6
Energy: -17.567322524087615 Kcal/mole
 H      7.0627022388     4.1758547569     2.9246411511
 F      6.8123796985     4.9712965671     3.3060857111
 H      5.7829338167     3.2379822600     1.6623288034
 F      6.6003915700     2.8574076988     1.8291065748
 H      5.2639564592     4.9677472115     2.5146243374
 F      4.6676311988     4.5576266832     1.9515201409
          6
Energy: -17.56164811006596 Kcal/mole
 H      7.0100116472     4.0921944721     3.0190455529
 F      6.7143731010     4.8256361340     3.4833193715
 H      5.8350896248     3.1904854494     1.6657104399
 F      6.6693258553     2.8436848397     1.8227717299
 H      5.1731463229     4.8244486959     2.6627303632
 F      4.6356947835     4.4239630255     2.0369140398
          6
Energy: -17.55281994551973 Kcal/mole
 H      7.0044733730     4.0745510936     3.0847197688
 F      6.6509072473     4.7850373894     3.5441642358
 H      6.0497116804     3.2739558857     1.5013063254
 F      6.8493278664     2.9268602385     1.7859597409
 H      5.2466629114     4.8615507809     2.4956952565
 F      4.7978393485     4.4945948815     1.7852096640
          6
Energy: -17.564347006075593 Kcal/mole
 H      6.9887510881     4.1456913670     3.1031986081
 F      6.6111597361     4.8615766546     3.5342693980
 H      6.1390968325     3.4363155778     1.3943712545
 F      6.9127846815     3.0524806006     1.7025381291
 H      5.3051968069     4.9841999908     2.3542561270
 F      4.9116405159     4.6723450386     1.5869563586
          6
Energy: -17.56380223966204 Kcal/mole
 H      6.9558052301     4.2498927468     3.0493706949
 F      6.5884074020     4.9845634330     3.4570063396
 H      6.0868594834     3.4449390771     1.4422787332
 F      6.8574200549     3.0620604144     1.7593423471
 H      5.2469961117     5.0557104379     2.3007476949
 F      4.8685883681     4.6854141048     1.5520306553
          6
Energy: -17.573498068772153 Kcal/mole
 H      6.8290842296     4.1866209696     3.1553985593
 F      6.4767359724     4.9487903187     3.5239600724
 H      6.0818448081     3.4251719443     1.4396550316
 F      6.7792676050     3.0003591076     1.8568174654
 H      5.2674482980     5.1041044974     2.2389972606
 F      4.9157496309     4.7512186208     1.4691475314
          6
Energy: -17.564635351181664 Kcal/mole
 H      6.9917964025     4.3178679601     3.0222085225
 F      6.6797889365     5.1251665605     3.3252090356
 H      6.0432418863     3.3993165013     1.4752375131
 F      6.7855948432     3.0079364201     1.8448626197
 H      5.3231054712     5.1648563834     2.1669798791
 F      4.8904542219     4.7341522078     1.4827315253
          6
Energy: -17.56812237354154 Kcal/mole
 H      6.7715641578     4.1809967976     3.1736846637
 F      6.4058933290     4.9546169170     3.5033598915
 H      6.1005431936     3.3629299908     1.4348617349
 F      6.7709146200     2.9462823955     1.9016549783
 H      5.2733641243     5.0722645879     2.1488002396
 F      4.9833203737     4.7263201053     1.3506235439
          6
Energy: -17.569240288841 Kcal/mole
 H      6.7075492382     4.1804985599     3.2007903929
 F      6.2482040813     4.8972106013     3.5416934240
 H      6.3377284781     3.4641108943     1.3377963638
 F      6.9777619894     3.0725330683     1.8649708232
 H      5.2812816556     5.0416347057     2.0727762934
 F      5.0967790756     4.7420625674     1.2259561638
          6
Energy: -17.573288212768205 Kcal/mole
 H      6.5647973884     4.0844114385     3.2496958381
 F      6.2269908277     4.8783339044     3.5602805217
 H      6.2398923299     3.4791656614     1.3508620154
 F      6.7308873018     2.9548496159     1.9208669469
 H      5.4488402611     5.2298880869     2.0022781829
 F      5.2980860610     4.9623227377     1.1382348073
          6
Energy: -17.568871275912386 Kcal/mole
 H      6.4977575350     4.0085060463     3.2588801314
 F      6.1022583184     4.7625618773     3.5992757445
 H      6.2885590351     3.5390268100     1.3069606816
 F      6.7943167734     2.9996247472     1.8493106837
 H      5.3837555936     5.1956101892     2.0271508026
 F      5.2965427922     4.9674560163     1.1432794315
          6
Energy: -17.567409362354283 Kcal/mole
 H      6.4355763583     4.0163566383     3.2861194101
 F      6.0739007678     4.8038054930     3.5861261904
 H      6.2305437356     3.4822332898     1.3465316898
 F      6.6908818315     2.9230840364     1.9089638634
 H      5.3933623110     5.1980328684     1.9940349096
 F      5.3026901052     4.9411564753     1.1184310781
          6
Energy: -17.569333377736882 Kcal/mole
 H      6.5097193183     4.0854267522     3.2250985772
 F      6.1320577631     4.8688204936     3.5158819945
 H      6.3503462542     3.4982734130     1.2862720375
 F      6.8300064823     2.9872853327     1.8776316974
 H      5.4717120727     5.2248039030     1.9186914478
 F      5.3863487135     4.9589781397     1.0452277906
          6
Energy: -17.566246598617397 Kcal/mole
 H      6.6523506292     4.1260639810     3.2503691913
 F      6.2879819985     4.9186190405     3.5331782765
 H      6.3639224009     3.5345294500     1.3028676176
 F      6.8651019856     3.0163541687     1.8696148291
 H      5.5629722425     5.2643641699     1.9728697123
 F      5.4218624079     5.0161995159     1.1014390960
          6
Energy: -17.56124569906325 Kcal/mole
 H      6.4892364372     4.0323519844     3.2680204974
 F      6.1487254430     4.8219709726     3.5865218574
 H      6.2951059140     3.4910161046     1.3328448784
 F      6.7397934939     2.9381583062     1.9137839551
 H      5.5118428648     5.2631113506     1.9601721038
 F      5.4400273168     5.0122556197     1.0810799987
          6
Energy: -17.572399522881256 Kcal/mole
 H      6.5084588778     4.0211263335     3.2837614087
 F      6.1528672221     4.8115826496     3.5831313918
 H      6.2548094604     3.4618158258     1.3632445400
 F      6.7446290683     2.9236137057     1.9211909798
 H      5.4389246594     5.1937160226     2.0046580793
 F      5.3105982734     4.9322353787     1.1351471757
          6
Energy: -17.56969081303214 Kcal/mole
 H      6.5520888826     4.0698559312     3.2735412898
 F      6.2344960006     4.8820640358     3.5569875039
 H      6.1715486942     3.4402900008     1.3785721708
 F      6.6353706447     2.8935559009     1.9502714118
 H      5.5016592538     5.2565625143     1.9795803019
 F      5.3424129470     4.9722956506     1.1224210611
          6
Energy: -17.574619247106682 Kcal/mole
 H      6.4020073447     4.0108253484     3.2988629421
 F      6.1247172289     4.8404570314     3.5740182842
 H      6.0606114933     3.3529967922     1.4309723087
 F      6.4963531472     2.8065347751     2.0246030650
 H      5.4234181790     5.1948549000     1.9937243573
 F      5.2603857641     4.9033968692     1.1396976317
          6
Energy: -17.574347217738023 Kcal/mole
 H      6.3669891098     3.9997455641     3.3122483292
 F      6.0782350696     4.8278608532     3.5800825545
 H      6.0887298939     3.3684211475     1.4115919561
 F      6.5183124744     2.8239826152     2.0115373628
 H      5.4350886884     5.2016216265     1.9641297045
 F      5.3002020180     4.9062338501     1.1065513421
          6
Energy: -17.5696983871195 Kcal/mole
 H      6.4480014960     4.0627291177     3.2842228713
 F      6.1359619007     4.8917959577     3.5212217441
 H      6.1057566358     3.3507934641     1.4063246878
 F      6.5764971480     2.8371599853     2.0025402693
 H      5.4129416040     5.1759006933     1.9623723821
 F      5.2402768367     4.8729311685     1.1142654637
          6
Energy: -17.56881141910037 Kcal/mole
 H      6.4644585884     4.0935894682     3.2898882649
 F      6.1075610542     4.9020222451     3.5347343294
 H      6.1096315075     3.3513462535     1.4096880752
 F      6.6353440980     2.8793455822     1.9942653912
 H      5.3256356898     5.1471056068     1.9693683352
 F      5.1544792307     4.8272449944     1.1271785376
          6
Energy: -17.57099183028032 Kcal/mole
 H      6.5242007818     4.1401813478     3.2492923776
 F      6.2117512819     4.9697487133     3.4839885561
 H      5.9923360502     3.3060450901     1.4869331849
 F      6.5408957043     2.8379384837     2.0533672154
 H      5.3152033139     5.1568891495     1.9837857109
 F      5.0868258703     4.7921949681     1.1740135841
          6
Energy: -17.57635811777908 Kcal/mole
 H      6.5150518477     4.1378009892     3.2942413090
 F      6.2105873469     4.9754262776     3.5100519762
 H      6.0157083644     3.2879499575     1.5130529319
 F      6.5480318909     2.8314827646     2.1039491706
 H      5.3237348510     5.1394879226     1.9856072244
 F      5.0897517381     4.7654661463     1.1817113271
          6
Energy: -17.57031474433677 Kcal/mole
 H      6.4898999489     4.1041478156     3.2909631841
 F      6.2015714644     4.9457128150     3.5135031511
 H      5.8439682148     3.2083675143     1.5702209415
 F      6.4296555419     2.7602021180     2.1152045489
 H      5.2175310688     5.0801793964     2.0506247701
 F      4.9230405003     4.6858392624     1.2768934448
          6
Energy: -17.57475237262571 Kcal/mole
 H      6.4714836134     4.0749762509     3.3085620527
 F      6.2052714697     4.9168826521     3.5559760905
 H      5.7790036062     3.2010793317     1.6193698752
 F      6.3760743280     2.7561088556     2.1545304385
 H      5.1525493575     5.0651251530     2.1399347479
 F      4.8371662155     4.6855047576     1.3670758804
          6
Energy: -17.57103258812907 Kcal/mole
 H      6.5175683606     4.0660446514     3.2939518516
 F      6.2339000021     4.8986621454     3.5531223961
 H      5.7492039079     3.1929634443     1.6367613590
 F      6.3804015577     2.7502428682     2.1332258778
 H      5.1426851137     5.0418294150     2.1678954354
 F      4.7919781660     4.6626489308     1.4101911414
          6
Energy: -17.57574907862096 Kcal/mole
 H      6.5269652596     4.0582339014     3.2876282839
 F      6.1819400182     4.8538816291     3.5856069345
 H      5.8545225027     3.2404882268     1.5743577750
 F      6.5032246142     2.8036150115     2.0531232336
 H      5.0740901289     4.9839699256     2.2154831659
 F      4.7748714497     4.6191745206     1.4291743878
          6
Energy: -17.571497911882147 Kcal/mole
 H      6.4924042763     4.0264584972     3.3263823304
 F      6.1711930035     4.8324974997     3.6230529298
 H      5.8484251140     3.2281034916     1.5872003364
 F      6.4846449744     2.7920888740     2.0831887863
 H      5.1053670489     5.0155824527     2.2225427733
 F      4.8085866712     4.6623670940     1.4300471469
          6
Energy: -17.566889627233195 Kcal/mole
 H      6.5288442107     4.0592427493     3.3064687590
 F      6.1848766512     4.8501019168     3.6181049174
 H      5.8657397871     3.2269080491     1.5940879781
 F      6.5071540404     2.7890368209     2.0816795522
 H      5.0746200839     4.9824812856     2.2398667356
 F      4.7818156074     4.6196895412     1.4502233422
          6
Energy: -17.576849048779366 Kcal/mole
 H      6.5703265791     4.0602154083     3.2620438874
 F      6.2716928356     4.8832748871     3.5345874282
 H      5.8051060676     3.1972112380     1.6072304743
 F      6.4553202169     2.7571682483     2.0810160030
 H      5.1384946355     5.0051747195     2.2017213853
 F      4.7784272100     4.6184857070     1.4522468649
          6
Energy: -17.57520280480952 Kcal/mole
 H      6.5782258746     4.0576552640     3.2568931259
 F      6.3026242997     4.8844879072     3.5419905690
 H      5.7742631637     3.1892346718     1.6202954426
 F      6.4336309241     2.7489012050     2.0809792763
 H      5.1417932823     5.0273820263     2.2229946559
 F      4.7662989443     4.6423229919     1.4802816951
          6
Energy: -17.574898627231676 Kcal/mole
 H      6.5387359965     4.0207279114     3.2964414924
 F      6.2674723096     4.8486881588     3.5824254796
 H      5.7653166441     3.1986410064     1.6215503224
 F      6.3955420255     2.7357645119     2.1005600502
 H      5.1698061422     5.0294277774     2.2229711143
 F      4.8035680327     4.6619164323     1.4668665856
          6
Energy: -17.5730606566529 Kcal/mole
 H      6.5206948859     4.0137110559     3.3183214648
 F      6.2490839255     4.8507317615     3.5762222686
 H      5.7866006586     3.2010609542     1.6013388675
 F      6.3969085118     2.7301475411     2.0979814771
 H      5.1830640798     5.0277734190     2.2028606073
 F      4.8308915039     4.6732640133     1.4339740370
          6
Energy: -17.569550300756077 Kcal/mole
 H      6.5082620847     4.0195279994     3.2949512448
 F      6.2194469729     4.8437291457     3.5745354031
 H      5.8259707472     3.2221339294     1.5710700864
 F      6.4234430902     2.7439972763     2.0763434187
 H      5.1630572741     5.0254013588     2.1928549045
 F      4.8459017499     4.6731331695     1.4078654165
          6
Energy: -17.572527093306007 Kcal/mole
 H      6.4972882327     3.9856716895     3.3033046087
 F      6.1934440663     4.7937815736     3.6123776386
 H      5.8491907772     3.2405137405     1.5526710535
 F      6.4666513098     2.7732077519     2.0438498435
 H      5.1469446717     5.0212045467     2.2010175045
 F      4.8467564862     4.6733558007     1.4074324094
          6
Energy: -17.569500397577997 Kcal/mole
 H      6.4915965288     3.9663560403     3.3102751106
 F      6.1730836269     4.7685282536     3.6200464320
 H      5.8573640479     3.2349588198     1.5193711635
 F      6.4559328699     2.7590021650     2.0254043916
 H      5.1454288931     4.9931091456     2.2062793265
 F      4.8444204539     4.6734925963     1.4012152415
          6
Energy: -17.57367105967495 Kcal/mole
 H      6.4580802376     3.9486180437     3.3316144686
 F      6.1627553849     4.7588377760     3.6434096207
 H      5.8298851916     3.2114725995     1.5564010180
 F      6.4294895521     2.7346138028     2.0603546855
 H      5.1592434869     5.0109741298     2.2083538091
 F      4.8701721230     4.6943411700     1.3977550704
          6
Energy: -17.577153651628976 Kcal/mole
 H      6.4529423117     3.9470936140     3.3297906536
 F      6.1609176689     4.7598214423     3.6381477276
 H      5.8162070002     3.2021437777     1.5637666582
 F      6.4023079471     2.7151141514     2.0738419695
 H      5.1612367771     5.0160612382     2.2056316626
 F      4.8700663835     4.6940713106     1.3978994740
          6
Energy: -17.57367033567931 Kcal/mole
 H      6.4441484893     3.9303963740     3.3627747154
 F      6.1457140996     4.7445789248     3.6609905584
 H      5.8406935431     3.2126145874     1.5624706757
 F      6.4229677052     2.7234257922     2.0748573684
 H      5.1804947652     5.0001023703     2.2293884444
 F      4.8820995339     4.6927565056     1.4185938925
          6
Energy: -17.578955743578945 Kcal/mole
 H      6.4593492949     3.9441951892     3.3493855065
 F      6.1583772983     4.7532857079     3.6587031262
 H      5.8545135197     3.2262359734     1.5667498672
 F      6.4432132277     2.7379916996     2.0726541891
 H      5.1693628378     5.0163803446     2.2186623748
 F      4.8848235242     4.6936924149     1.4088482732
          6
Energy: -17.576857067596563 Kcal/mole
 H      6.4614167928     3.9428333797     3.3550238926
 F      6.1582676223     4.7533579487     3.6584040229
 H      5.8516586428     3.2277028513     1.5593540712
 F      6.4385444680     2.7354508692     2.0634790700
 H      5.1540225087     5.0146638968     2.2123377968
 F      4.8816568070     4.6898852019     1.3991805403
          6
Energy: -17.577288776115267 Kcal/mole
 H      6.4885612322     3.9901523495     3.3353307822
 F      6.1933340530     4.8062615012     3.6314654901
 H      5.8635009548     3.2345836851     1.5628011959
 F      6.4552830797     2.7577055543     2.0758997877
 H      5.1886336662     5.0295446195     2.2105834883
 F      4.8902534765     4.7034949662     1.4071222969
          6
Energy: -17.577993416211655 Kcal/mole
 H      6.4991562801     3.9942287350     3.3348888467
 F      6.1927720102     4.8060452583     3.6314889337
 H      5.8686475035     3.2328370865     1.5686128959
 F      6.4660711306     2.7532669266     2.0725836010
 H      5.1768109187     5.0297953304     2.1958055983
 F      4.8911172514     4.6852070292     1.3954762717
          6
Energy: -17.577340764910844 Kcal/mole
 H      6.4954881000     3.9900202826     3.3427845044
 F      6.1929665987     4.8062685070     3.6310700873
 H      5.8739142221     3.2313099515     1.5610081920
 F      6.4657917433     2.7533479376     2.0729870130
 H      5.1842952073     5.0259102682     2.1947591746
 F      4.8907202272     4.6854131227     1.3955317820
          6
Energy: -17.578389234907263 Kcal/mole
 H      6.4999448237     3.9925479745     3.3403630859
 F      6.1927301798     4.8061344188     3.6311985380
 H      5.8615803366     3.2298575517     1.5753874536
 F      6.4552549064     2.7494827355     2.0830089081
 H      5.1831486314     5.0311977033     2.1929061717
 F      4.8907810504     4.6851326365     1.3956300796
          6
Energy: -17.57820962518224 Kcal/mole
 H      6.4853771941     3.9825422785     3.3358207518
 F      6.1858829312     4.7963562030     3.6339802439
 H      5.8405614200     3.2112206791     1.5847798042
 F      6.4449999403     2.7414565411     2.0896210960
 H      5.1649067808     5.0139817742     2.2138122672
 F      4.8697135515     4.6724715441     1.4156138457
          6
Energy: -17.578199150792727 Kcal/mole
 H      6.4901285103     3.9814896406     3.3436155877
 F      6.1856308848     4.7964120430     3.6335667459
 H      5.8395338240     3.2169729735     1.5914446846
 F      6.4450544518     2.7411513952     2.0892675395
 H      5.1704181052     5.0114231424     2.2128437856
 F      4.8694211884     4.6726072736     1.4156652214
          6
Energy: -17.579805920190154 Kcal/mole
 H      6.4933852354     3.9821466252     3.3432065758
 F      6.1897839939     4.7964123931     3.6359292183
 H      5.8464518075     3.2173716521     1.5835282100
 F      6.4446874688     2.7411302462     2.0896874902
 H      5.1659890676     5.0125061333     2.2140411225
 F      4.8696561386     4.6725498235     1.4156017055
          6
Energy: -17.579138267518886 Kcal/mole
 H      6.4944079737     3.9827915281     3.3424769851
 F      6.1897297400     4.7963781825     3.6359679214
 H      5.8473245621     3.2210261967     1.5859560410
 F      6.4446411712     2.7409363811     2.0895586993
 H      5.1659683845     5.0103861737     2.2149479204
 F      4.8696572358     4.6726622824     1.4155536019
          6
Energy: -17.579891183861207 Kcal/mole
 H      6.4935745070     3.9829041271     3.3413033524
 F      6.1897739535     4.7963722094     3.6360301799
 H      5.8441211032     3.2168924862     1.5858435196
 F      6.4448111073     2.7411556649     2.0895646684
 H      5.1666269936     5.0145757360     2.2129192526
 F      4.8696222981     4.6724400358     1.4156612181
          6
Energy: -17.580020067375813 Kcal/mole
 H      6.4920793293     3.9817330527     3.3430060186
 F      6.1898532692     4.7964343322     3.6359398574
 H      5.8444985853     3.2171010387     1.5855905978
 F      6.4447910827     2.7411446017     2.0895780853
 H      5.1667116925     5.0135958826     2.2133074559
 F      4.8696178051     4.6724920148     1.4156406248
