          6
Energy: -0.4785317122103224 Kcal/mole
 Xe    -0.6981179073    -8.0919873104     2.7103572603
 Xe     9.8838846968    -3.0468951766    10.0534467462
 Xe    -4.5684563014    -9.5708711328     9.9678131084
 Xe     3.3913074855     9.7423502593    -9.9155185839
 Xe     0.0178534318     0.8554306757     2.9942160255
 Xe    -2.7784035203    -0.0712402951    -0.4051402546
          6
Energy: -2.7024046389261422 Kcal/mole
 Xe    -3.0771031714    -4.7251623761    -1.3376822230
 Xe    -0.3553773904    -1.9246322393     0.6326557046
 Xe    -0.7552846967    -5.6948123147    -9.2322221568
 Xe    -7.6232847402    -3.4702496175     1.6726959017
 Xe     1.2721359850    -3.9972956218    -2.5118962498
 Xe    -1.5107066141    -3.3221385185    -5.4897359895
          6
Energy: -2.0443161328957276 Kcal/mole
 Xe     5.4599885472     6.8906667909     0.5373747105
 Xe     0.5381375441     5.3640726412    -7.1042970535
 Xe     3.6578430626     8.8916317867    -7.2045367894
 Xe     5.8224830354     8.1274767963   -10.5083237983
 Xe     7.5862320084    10.4945958514    -6.9201744874
 Xe     2.2694911836     4.2732101030   -10.5255878097
          6
Energy: -4.5698252993342035 Kcal/mole
 Xe     3.6004462304    -0.1170275740    -8.0052199128
 Xe     1.5217631280     0.8890084797    -1.0910620425
 Xe    -0.2161977719     0.1797830996    -5.3286867378
 Xe     3.9723692444    -1.1556162700    -3.5860131209
 Xe     6.0163477237     1.3414679630    -0.4483472884
 Xe     3.3339814633     2.9934276403    -5.0972979772
          6
Energy: -3.337641217851657 Kcal/mole
 Xe     7.7166396638     4.5767033341    -8.6207644579
 Xe    10.3044147490     1.9578787558    -4.5883451970
 Xe    -0.7684848004     2.2675365966    -9.2329243032
 Xe     4.6424634788     6.9244509998   -10.6582109667
 Xe     3.5597880632     3.0898260707    -8.5389989075
 Xe     6.9922865960     0.6858792253    -6.9985487318
          6
Energy: -4.242539659395642 Kcal/mole
 Xe     4.4642113912     7.6120973240    -4.8407963016
 Xe     9.1161011418     7.8612921745    -4.0704495919
 Xe     3.2367762650    10.2945184980    -9.5917059927
 Xe     7.0587479709     9.7877792349    -7.2437651322
 Xe     6.6938704186     3.6281745323    -4.7373594609
 Xe     6.1673303969     5.7666710882    -8.4605716332
          6
Energy: -4.7169532431488 Kcal/mole
 Xe     5.5270208616     2.7053550444    -1.7011048160
 Xe     8.8327909503     0.9590936501    -4.5795019840
 Xe     4.0166661810     4.0812678581    -9.8398493148
 Xe     6.4830130837     4.9860853008    -5.3243425649
 Xe     4.5874146996     1.3091168426    -5.6314544055
 Xe     8.0032559757     2.3492244568    -8.6380281980
          6
Energy: -4.911445308329779 Kcal/mole
 Xe     9.1864261892     0.3445710040    -8.6586006287
 Xe     5.3892447943    -1.5369704458    -8.3327555957
 Xe     3.7983047591     5.8952442890    -7.5693525563
 Xe     6.0651617117     1.9854084343    -6.1295082566
 Xe     2.3352095778     1.6223143920    -7.7525559969
 Xe     5.7171825327     2.5666439399   -10.4379654452
          6
Energy: -5.098919607896004 Kcal/mole
 Xe     7.7719615941    -4.9815450043    -7.3037749134
 Xe     4.2980790307    -4.5009425102    -9.9883612947
 Xe     4.7404333209     1.8545071129    -7.1256630873
 Xe     4.2399420511    -2.4504702939    -6.3751931933
 Xe     2.8566724640    -0.4273542935   -10.2792487245
 Xe     7.1913899606    -1.0616082379    -9.7537214232
          6
Energy: -5.32629197184366 Kcal/mole
 Xe     7.8926084256    -4.8392568378    -7.4029026099
 Xe     4.4343200098    -4.6265280456   -10.1446603495
 Xe     4.9573849298     1.8045495889    -7.0480842641
 Xe     4.3494293371    -2.4889410878    -6.2883944200
 Xe     2.6438978990    -0.6144830188    -9.8956468584
 Xe     7.0244879204    -1.1221665474    -9.5706883625
