          6
Energy: -5.502544903772643 Kcal/mole
 Xe     8.3075917734     8.0752248575     4.0452108883
 Xe     7.2612015959     1.9828541634     3.2930634211
 Xe     4.8804217570     5.6260094703     2.7870740114
 Xe    10.6727302465     4.4208039466     4.5428440012
 Xe     6.8413751492     4.8246372056     6.6275906362
 Xe     8.7065497992     5.2385653065     0.6902504832
