          6
Energy: -2.661328289892656 Kcal/mole
 Xe     6.6048754137     4.9319819342     6.9527465984
 Xe     0.4424542307     8.4489916441     0.0747121119
 Xe     1.4473872578     4.3330888431     7.7989455140
 Xe     5.6617219725     2.8080336253    -0.5558858747
 Xe     3.7397562538     4.3624801234     3.1223395768
 Xe     8.6160621695     3.9903921225     2.7164254233
          6
Energy: -2.9166012435405113 Kcal/mole
 Xe     0.7962321668    -3.7699288311     0.1914297673
 Xe     1.0637219607     0.6190890764    -0.5889797972
 Xe     6.9043163275    -3.2315954415    -0.6552811040
 Xe     8.3172217124    10.0393634362    -1.4240615674
 Xe     3.1890624890    -0.9788657934     2.7244675438
 Xe     3.2793405191    -2.1033665424    -3.4790928056
          6
Energy: -4.1791343154044736 Kcal/mole
 Xe    -1.6187390950    -6.2437550887     2.1066277861
 Xe    -2.8197504565    -3.4126557576    -0.5577786508
 Xe     2.0215427045    -5.5511542005     4.4786295198
 Xe    -1.6787929795    -6.2379772771     6.5363094366
 Xe    -0.5372938302    -2.4219155770     4.3569177730
 Xe    -5.4044025329    -4.5883295242     3.6171789785
          6
Energy: -3.9507764133425556 Kcal/mole
 Xe     1.5821046689    -8.5390848327     7.1627835343
 Xe     0.6101425351    -4.9445764699     4.5981712554
 Xe     2.9990301406    -9.5718789769    -1.0051091343
 Xe    -0.1907952307    -9.5241410201     2.2751696660
 Xe     3.9828354566    -7.6353013359     3.3434965023
 Xe    -0.2523421730    -6.2054237582    -1.2604223695
          6
Energy: -4.517386731667466 Kcal/mole
 Xe     5.6324084382    -0.7260276294     0.6319733385
 Xe     6.1652764870     0.2076037402    -4.0959270295
 Xe     4.9539633983    -3.5303359028    -2.5654670889
 Xe     6.7790791206    -4.5635338336     2.0285924172
 Xe     2.1351049643    -0.6153224103    -2.1988932685
 Xe     2.1705407824    -4.4834165033     0.6528440366
          6
Energy: -4.5799404072556 Kcal/mole
 Xe     5.9287686514    -5.2109657419    -0.7624181236
 Xe     8.9009715073    -2.0867878186     0.3830253867
 Xe     3.9165120645    -4.5205521090    -4.5636458313
 Xe     8.0573448683    -3.9091681904    -4.1607286784
 Xe     4.9064470850    -0.8178847225    -2.8163531261
 Xe     4.8058154195    -1.0454818118     1.8220890177
          6
Energy: -5.152650460420827 Kcal/mole
 Xe     0.3110734077    -4.4970883160    -1.3874925440
 Xe     3.7488134049    -2.0978892646     0.8810656658
 Xe     3.0693435515    -6.3804804824    -4.1088048290
 Xe     3.5793171834    -6.5930943467     0.2690531277
 Xe     6.5162924316    -3.9662007103    -2.2115303110
 Xe     3.2358097027    -1.6996326943    -3.6723661422
          6
Energy: -5.173977467856893 Kcal/mole
 Xe    -1.1562619277    -5.5045386856    -1.8426605744
 Xe     2.1126127529    -8.5466843928     0.0663626000
 Xe     1.8428722400    -2.7944415055    -3.0357558579
 Xe     2.2085123722    -6.8894444493    -4.3308344619
 Xe     5.0981903522    -5.3574300727    -1.4471443548
 Xe     1.6750666526    -4.2606851304     1.4442115769
          6
Energy: -5.408448437240715 Kcal/mole
 Xe    -2.9284001529    -7.2307510018    -1.7306204200
 Xe     0.4587909570    -8.6798488714     0.5116063141
 Xe    -0.3403826097    -5.5775651163    -4.7868951660
 Xe    -0.0843903904    -9.7653192519    -3.7529513239
 Xe     3.2707515101    -7.0174774378    -2.8397774082
 Xe     0.3628397731    -4.5552589230    -0.6769522140
          6
Energy: -5.502823912278349 Kcal/mole
 Xe    -2.8779794778    -7.2434618332    -1.5635020043
 Xe     0.7130843841    -8.8378172820     0.4457324855
 Xe    -0.3338023881    -5.4578942385    -4.6823690466
 Xe    -0.0448486595    -9.7819064852    -3.7871243181
 Xe     3.2345060548    -7.0830930505    -2.6855914857
 Xe     0.4142807955    -4.5518242161    -0.4628301734
