          24
Energy: -95.5599936079845 Kcal/mole
 H      1.5168876912     6.8775638553    -1.8087976712
 F      2.3586497681     6.7487900366    -1.4685875752
 H     -1.9059796560     0.1523452432     4.2761894006
 F     -1.8376743954     1.0394340594     4.0541605204
 H      2.4332604643     3.8190279720     0.8568403619
 F      2.5251461876     3.5755736052     1.7361446239
 H     -0.9041807036    -1.5000905362     5.0854880360
 F     -1.7375469927    -1.4172342626     4.7119582967
 H     -0.4991760808     5.9952571312    -2.1351698271
 F     -0.0652753837     6.7869497518    -2.2959242352
 H      1.3761501448     2.6222390195     2.4466263527
 F      0.7954592596     2.0665369949     2.8880811699
 H     -1.9604653784     1.5872102167     2.4826090597
 F     -2.0517716094     1.8583977680     1.6113975560
 H     -0.8332509956     4.0916994433    -0.9322986918
 F     -1.1075141584     4.5140185588    -1.6986636716
 H      1.0382980775    -0.5043214406     5.5073488245
 F      0.6465868777    -1.3221741403     5.6436143649
 H      2.4333972894     5.1863197589    -0.9858280647
 F      2.3109798148     4.3138845609    -0.7313486212
 H     -0.9166574228     2.8495961897     0.9301724966
 F     -0.3406562486     3.4210744599     0.5029439465
 H      1.2911722182     1.4248191923     4.3347565729
 F      1.5711224866     1.0149075160     5.1057878725
