          24
Energy: -95.55224074163473 Kcal/mole
 H      1.5288709174     6.8699302813    -1.8208747670
 F      2.3666815074     6.7313369127    -1.4748194340
 H     -1.9049087566     0.1305808742     4.2275857090
 F     -1.8927246782     1.0283572455     4.0412040168
 H      2.4197566871     3.8055176577     0.8531683968
 F      2.5104254840     3.5655943105     1.7335688493
 H     -0.8193131386    -1.5170016151     4.9744191339
 F     -1.6491177407    -1.4464785645     4.5905704375
 H     -0.4980433689     6.0236521489    -2.1352760867
 F     -0.0485437437     6.8020216858    -2.3168799165
 H      1.3427219649     2.6451571620     2.4622416502
 F      0.7582613641     2.1067151705     2.9198168111
 H     -2.0094900095     1.5959344225     2.4808174783
 F     -2.0932459589     1.8745253259     1.6111847688
 H     -0.8548807536     4.1220083192    -0.9118156226
 F     -1.1347197352     4.5644979897    -1.6646649009
 H      1.0856541653    -0.4906572448     5.4668230290
 F      0.7143412309    -1.3228771834     5.5689292406
 H      2.4277712884     5.1682981075    -0.9904762327
 F      2.2983140281     4.2974266709    -0.7341312334
 H     -0.9395506659     2.8467506401     0.9308466585
 F     -0.3532956269     3.4065147205     0.5020597609
 H      1.2823488653     1.4700943692     4.3554454184
 F      1.5748787841     1.0556407705     5.1193455827
