          24
Energy: -95.52320002157323 Kcal/mole
 H     -0.4522066209     5.5894914899    -3.1566510821
 F      0.3336353707     5.7630809855    -2.7170967040
 H     -3.3026430162    -0.1357579588     4.1898973486
 F     -3.3523088464     0.7568955417     3.9859560991
 H      0.2979774060     4.1865916070     0.6663298209
 F      0.6381045685     3.4994122803     1.1693080374
 H     -2.0496992203    -1.6508903665     4.8773858762
 F     -2.9163292941    -1.6752366624     4.5786408794
 H     -2.5908106274     4.9811684364    -2.9653379897
 F     -1.9947617107     5.1831232145    -3.6322929780
 H     -0.4195783725     2.6049121181     2.0746280091
 F     -0.9575443723     2.1099883750     2.6282813949
 H     -3.6741587080     1.3777834569     2.4544882612
 F     -3.8749098510     1.6801090817     1.6123557329
 H     -3.0939723752     4.1256618520    -0.9314187689
 F     -3.4770331413     4.5913008960    -1.6223121978
 H     -0.2507281866    -0.3921288033     5.1945668931
 F     -0.4965069300    -1.2686606596     5.3049014486
 H      0.0291382433     5.6035187403    -1.1164926017
 F     -0.2792489610     5.4428717014    -0.2679769205
 H     -2.8468799748     2.6644423974     0.7653886440
 F     -2.3396778600     3.2268336084     0.2483285503
 H     -0.3400352612     1.5643101940     4.0810522150
 F      0.0150218458     1.2016438620     4.8447907712
