          24
Energy: -6.0958699483760626 Kcal/mole
 H     -2.6719085796    -2.7289139757     2.0005471219
 F     -3.5542438374    -2.4791671180     2.0005471219
 H     -1.9699897149     3.1654855493     0.9867045056
 F     -2.6015493731     3.1654855493     0.3218576073
 H      3.6252702419     1.3809555984     1.9189752594
 F      2.8206588637     0.9410811504     1.9189752594
 H     -1.9599668865     4.4513098344     4.9932094315
 F     -1.0429668865     4.4513098344     4.9932094315
 H      1.6955549557    -2.6258021742     0.4166304688
 F      1.0401490854    -2.6258021742     1.0579822796
 H      0.1802488036     3.3048193963    -3.4638760296
 F      1.0972488036     3.3048193963    -3.4638760296
 H     -1.4819604278    -0.5124146508    -1.8978654934
 F     -0.6046048366    -0.5124146508    -1.6311518518
 H      6.6622673533    -2.8781257637    -0.7422741154
 F      5.7457048771    -2.9064493790    -0.7422741154
 H     -3.4554597806     2.4663752995     3.7884045302
 F     -4.0648508160     2.4663752995     3.1031807959
 H     -2.3924249334    -4.5761503669    -0.7165337745
 F     -3.2521959417    -4.5761503669    -1.0354112013
 H     -4.6557206570    -0.7983391294    -2.4795266878
 F     -3.7387206570    -0.7983391294    -2.4795266878
 H      2.7068140609    -3.7133822964    -4.5329505578
 F      2.8718625372    -3.7133822964    -3.6309261676
