          24
Energy: -95.54470373766868 Kcal/mole
 H      1.5396351623     6.8249516521    -1.8512313446
 F      2.3768962378     6.6733325445    -1.5093329128
 H     -1.9021059537     0.1431083716     4.2481463557
 F     -1.8611438226     1.0393574247     4.0585448300
 H      2.4432046449     3.7890362856     0.8482689210
 F      2.5426663990     3.5640662334     1.7316628507
 H     -0.8453084271    -1.5354352051     4.9566405011
 F     -1.6906425809    -1.4418527181     4.6137972618
 H     -0.4774150831     6.0011765950    -2.1546377459
 F     -0.0353875623     6.7835092347    -2.3375484116
 H      1.3817340936     2.6344928566     2.4645175081
 F      0.7991905425     2.0873252120     2.9141168628
 H     -1.9925804603     1.6432816810     2.5067505245
 F     -2.0827547441     1.9464982737     1.6460430849
 H     -0.8192797483     4.1311183002    -0.8878674991
 F     -1.0853618244     4.5284296221    -1.6703207196
 H      1.0901866579    -0.5458224368     5.4038065492
 F      0.7169968850    -1.3802072689     5.4774295445
 H      2.4328715870     5.1096899610    -1.0171928953
 F      2.3033366449     4.2419531126    -0.7504674546
 H     -0.9307855230     2.9376053630     0.9913340273
 F     -0.3455099639     3.5064762381     0.5733299037
 H      1.3046930788     1.4324956206     4.3521840398
 F      1.5849750893     1.0068624300     5.1145273887
