          24
Energy: -95.49080353674512 Kcal/mole
 H      1.2974182112     6.8011572081    -2.0034075037
 F      2.0866217968     6.7977522844    -1.5364652087
 H     -1.9615854549     0.1410113676     4.3813571018
 F     -1.9386153556     0.9501746761     3.9505252151
 H      2.1824395167     4.0619037104     0.9504285081
 F      2.1911579341     3.9189582416     1.8561765868
 H     -0.9475199687    -1.1381455688     5.7033453205
 F     -1.7296628918    -1.2357656131     5.2347177766
 H     -0.5686661050     5.6988151828    -2.4594456540
 F     -0.1639772184     6.4856888582    -2.7001648348
 H      1.1872800676     2.7675698421     2.4910684488
 F      0.6818735123     2.1245656933     2.9057959238
 H     -1.9476956467     1.2565270473     2.2893719910
 F     -1.9751383713     1.4133644097     1.3863005992
 H     -0.8686251497     3.8296413226    -1.1129340310
 F     -1.1475851740     4.2578761597    -1.8743046563
 H      0.8311889086     0.1262235005     6.0643694182
 F      0.5008852663    -0.6757916033     6.3619602064
 H      2.2635499968     5.2716125363    -0.9641566659
 F      2.1981521399     4.4035911226    -0.6757976089
 H     -0.9210457630     2.4995699551     0.7254704401
 F     -0.3853266733     3.1248110130     0.3217778881
 H      1.0420030446     1.7877699314     4.4951349546
 F      1.2613818155     1.5659390884     5.3574301662
