          24
Energy: -95.53376082012193 Kcal/mole
 H      1.6408588066     6.6669920637    -2.0388724745
 F      2.4637746316     6.5612430625    -1.6483398974
 H     -1.8761224679     0.1218946426     4.1648374656
 F     -1.8420759093     1.0189658665     3.9777731689
 H      2.4523738512     3.8433301514     0.8968740443
 F      2.4957618979     3.6664792338     1.7956121765
 H     -0.8442595216    -1.5396296481     4.9556753906
 F     -1.6574966287    -1.4577565111     4.5399456742
 H     -0.3857012811     5.8060867796    -2.3831823123
 F      0.0876661232     6.5611033613    -2.5994281493
 H      1.3579485129     2.6558308839     2.4321864730
 F      0.7823304231     2.0634465963     2.8304748993
 H     -1.9824282926     1.6273755886     2.4256082142
 F     -2.0823043028     1.9294103982     1.5655566132
 H     -0.8237602396     4.0349203713    -1.0297312165
 F     -1.0779817047     4.3990399574    -1.8320262829
 H      1.0698546346    -0.5495272110     5.4498332594
 F      0.6743830899    -1.3627826745     5.6018424971
 H      2.5254123405     5.0434609647    -1.0529066381
 F      2.4032914417     4.1916319375    -0.7361057628
 H     -0.9324955162     2.9047297800     0.8889506898
 F     -0.3512044213     3.4678717836     0.4578349899
 H      1.2991502902     1.3825437445     4.2548896399
 F      1.5964601414     0.9599286609     5.0124464651
