          24
Energy: -95.54838541235405 Kcal/mole
 H      1.5456666737     6.8657346655    -1.8514250693
 F      2.3799086018     6.7282995446    -1.4964025447
 H     -1.9152430645     0.1378257319     4.2506041430
 F     -1.8964201821     1.0302863414     4.0407261793
 H      2.4038336138     3.7999791434     0.8344002491
 F      2.5113409954     3.5510888934     1.7104052755
 H     -0.8340766913    -1.5172226676     5.0057658117
 F     -1.6744285887    -1.4316110003     4.6488788115
 H     -0.4765205288     6.0059146848    -2.1715266084
 F     -0.0307795893     6.7851024055    -2.3587978313
 H      1.3484962727     2.6445650507     2.4594285103
 F      0.7640269591     2.1083780861     2.9196329871
 H     -1.9880483249     1.5824017572     2.4655475460
 F     -2.0608032805     1.8541211312     1.5927564495
 H     -0.8438968619     4.1394866914    -0.9082696684
 F     -1.1068938874     4.5494939436    -1.6851967034
 H      1.0968062884    -0.5222911647     5.4516734799
 F      0.7260363440    -1.3552111142     5.5499740698
 H      2.4088021015     5.1693063167    -1.0043062505
 F      2.2577027756     4.3021782004    -0.7471160026
 H     -0.9474871972     2.8910265205     0.9509674390
 F     -0.3777518555     3.4826915031     0.5432626576
 H      1.2854330081     1.4573825808     4.3512248827
 F      1.5754102023     1.0353383742     5.1119356783
