          6
Energy: -0.00631505406192487 Kcal/mole
 He    -2.9649105470    -1.8002370364     5.5736229935
 He    -7.1727876924     5.9444186093    -4.1252759582
 He    -0.9497018032     2.1881372083     1.5722582923
 He     3.1279885683    -1.4327588680     3.4796302767
 He    -3.3517331593    -4.9512842761    -5.9702666324
 He    -2.5511070093     5.9261763417     1.5988483974
          6
Energy: -0.038387860099511006 Kcal/mole
 He    -0.0868473254    -0.4736939689    -4.0124413035
 He    -6.0858682998    -5.4887372307    -5.1495241431
 He    -0.1073202487     4.0413250763    -3.8069812296
 He     6.1121813150     6.9543536961    -4.2611396205
 He    -0.2632588622    -5.2754646319    -5.9114266552
 He    -3.3715111750    -6.3452797209    -5.7332475381
          6
Energy: -0.042056903888774914 Kcal/mole
 He    -1.5617287865     3.8655478753    -1.5732687030
 He    -3.7476024481     5.4602634157    -1.0505525714
 He    -0.7421580575     2.6434971526     0.8453876630
 He     5.6569046443     4.2967055343     5.3363309990
 He     5.2622659514    -1.7842372670     5.0480519031
 He    -2.6578789866     5.6648416367     6.2649305917
          6
Energy: -0.06272992496149819 Kcal/mole
 He    -3.6723373715     4.1156907761    -2.5664070669
 He    -3.8321908699     1.1312963146     3.7359603464
 He    -6.2215887445     0.0468522025     2.2305729225
 He    -5.9032564771     2.8376988080     1.7921813473
 He    -0.1231730262     2.6541353748    -1.8507534236
 He     0.6456700738     2.5359110216     4.0417966574
          6
Energy: -7.583757264273834E-4 Kcal/mole
 He     5.8531506210    -3.3562195192    -1.9214949970
 He    -1.4103090262    -4.9080140329     6.2424500710
 He    -0.0818912189     1.6540996400     7.0228409154
 He    -7.1448637454     5.4569921857    -0.9254887098
 He     7.4330288000    -5.5672475651    -7.3091850158
 He    -6.9266882306    -4.8038901881    -5.4950297302
          6
Energy: -0.03323972556441046 Kcal/mole
 He    -0.7551555551     6.2670390790    -7.4046261311
 He     3.5855370824    -0.4359717596    -3.0264691478
 He     5.5487617301     2.4061899502    -1.6151057113
 He    -1.3303912439    -4.6972958281     3.6871199002
 He    -4.8031852275    -7.4641822451     1.7773530560
 He    -3.1446528411    -6.6699906724     5.1759830733
          6
Energy: -0.056862139793176183 Kcal/mole
 He     6.3829024478     1.2166160754    -0.6006395594
 He     1.0260308879    -1.1634531207    -7.2696381821
 He     6.2675637407     4.5292578100     0.6781628751
 He    -2.7417535097    -2.5054641026     3.7128253069
 He     5.1202536124    -1.0428610939    -0.8313944876
 He     4.8229025169     1.6706455012     1.7143431192
          6
Energy: -0.17109198906413534 Kcal/mole
 He     3.5825403521     2.7042026817    -0.9067280250
 He     5.4489200604    -1.2363531864    -2.1946119492
 He     5.9710245628     1.7175013376    -2.0078517232
 He     5.0709639720     0.1033154833     0.2964771800
 He     2.9559651411     0.7396909756    -2.9835570994
 He     5.7321926701     4.7696927861    -3.1944241138
          6
Energy: -0.23226425732705838 Kcal/mole
 He     4.3869731388     5.0967690134    -2.5568017021
 He     6.1833805243     1.3320946704    -2.0807527441
 He     6.4362605875     4.0510161830    -0.6326567868
 He     3.8358168928     2.7926857217    -3.9991193403
 He     6.8556338193     3.6795210750    -3.4888421766
 He     3.8091831370     2.6628696390    -1.1846427048
          6
Energy: -0.2540634245259159 Kcal/mole
 He     4.3187769461     5.0446447925    -2.3337522293
 He     6.0331132652     1.3809875049    -2.4476579528
 He     6.3170240290     3.6942220466    -0.7869301145
 He     4.0192978090     2.7557337550    -3.9866373815
 He     6.6178644177     3.9297904079    -3.6041726756
 He     3.7423746700     2.4958051996    -1.1589467938
