          6
Energy: -0.016806187634040286 Kcal/mole
 He    -2.6246314612    -4.1379238610    -0.7259613994
 He     1.2268548747     3.4545150328    -5.6579167809
 He     0.0923288021    -0.2306600876    -4.6478846880
 He    -0.1323107899    -3.2910844279    -6.3570339846
 He     6.7980875581    -5.8629224119     3.8682246894
 He     5.0163971496    -0.2934111939     5.5775215826
          6
Energy: -0.0062275907949498775 Kcal/mole
 He    -3.1587935500     6.1609591695    -7.4516493416
 He     0.3360968518     4.0965694190    -5.1194889985
 He    -4.9297124574     6.6794698632    -3.5965611556
 He     4.0633979140    -1.0749098109     3.2039009370
 He     6.1705383376     7.1494534974    -1.3496464266
 He    -3.9136287198    -6.2680260117    -0.1820293427
          6
Energy: -2.5413757452535864E-4 Kcal/mole
 He    -5.5835311569     4.5647442523    -0.5673676789
 He     7.3378271008    -1.1206919864    -5.8893326267
 He     2.5191120668    -7.2434670511     2.8691680703
 He    -0.8075790028     6.2454391553     5.4460982832
 He    -6.8166230500    -4.4118657757    -1.2461377943
 He     6.8712786818     5.5936090272     0.5518126884
          6
Energy: -0.04336667224202206 Kcal/mole
 He    -0.8016632778     1.0746684368    -5.8567251810
 He    -0.8794662535     3.0786214279    -1.4415360456
 He     4.5101841440     0.2924255262     1.1265058200
 He     2.2085029109    -3.1880451718    -4.5732134142
 He    -0.4033985080     0.6771637020    -2.8705619284
 He     6.8710353341    -6.1386362387     3.8185134525
          6
Energy: -0.021302440612797412 Kcal/mole
 He    -2.8932065540    -4.4892544341    -4.1779064269
 He     2.1119984394    -2.2855003595    -0.4410263455
 He    -5.5376192732     5.7885721427    -6.0168597142
 He     3.9159602197    -1.9272382976     6.5922528749
 He     5.4755609849    -5.6585480365    -1.4831589934
 He     1.2694690270    -1.1438940955     2.2861435400
          6
Energy: -0.04366888622175982 Kcal/mole
 He     5.4098940188     2.2341808259    -0.6737377313
 He     5.2053966808     1.3601744898    -3.5976050344
 He    -1.8518671533     2.6221126674    -2.6117198933
 He    -3.6855650022     7.0979664820    -2.8602875754
 He    -4.3112850042     1.8094264453    -3.3118066525
 He     5.3980602134     5.1317112188     1.7050903499
          6
Energy: -0.03460855346340701 Kcal/mole
 He     6.1506656915     5.5380152536    -3.2493004415
 He    -0.2576852223    -6.2319126543    -2.0560332542
 He     4.6874397214    -7.2769688453    -3.9704681081
 He    -0.5105607883     3.9641674506     3.1493635090
 He    -3.7153535204     4.2562257868     2.3184535012
 He     1.0765714320     4.5180644371     5.4277175920
          6
Energy: -0.07908274110511769 Kcal/mole
 He    -6.7831199659    -0.2659109276     1.7879154139
 He     6.4446849082     4.5279617840     5.0152720407
 He    -3.8686253338    -3.3886567953     1.8009992283
 He    -6.1344160125    -2.6548612278    -0.7579302969
 He    -1.9755342353    -2.4739752982    -1.4852750633
 He    -3.3612331497    -0.4990437727     0.8558221446
          6
Energy: -0.2305521194441737 Kcal/mole
 He    -4.0803796178     2.4187827249     3.1604666823
 He    -3.1253221075     1.0773051739     0.7418839448
 He    -4.4539428171     0.1628609044     4.6672141032
 He    -5.7747920723     0.3414249441     1.7913097370
 He    -1.9028519012     0.4879217982     3.5696379106
 He    -3.6728127899    -1.6012477211     2.6562317245
          6
Energy: -0.25412803562929104 Kcal/mole
 He    -4.0294780749     2.5028024523     2.8482832159
 He    -2.8819655351     0.7396468731     0.9199907623
 He    -4.8538964259     0.2688814908     4.4350153789
 He    -5.6421010837     0.4412389562     1.6852039072
 He    -2.1135758388     0.5554145103     3.6707615162
 He    -3.7050835364    -1.5084200791     2.4894845106
