          6
Energy: -0.018158446254689507 Kcal/mole
 He     6.5487735794    -0.8468763584    -6.1260781502
 He    -1.7872325066     1.2143207533     4.4440320769
 He    -0.5461993836    -1.5744819668    -2.1128954566
 He     1.2090819510    -5.8394315701     2.8107452658
 He    -1.8947414229    -4.3342830371     1.8616521453
 He    -4.1597227282    -5.2450549743     4.9205724550
          6
Energy: -0.024085555590240785 Kcal/mole
 He    -5.6082180085    -1.1216100836     1.3072049042
 He    -1.3067930809     1.4609624956    -2.8154668838
 He    -3.1863668965    -0.7850760945    -3.1020644727
 He    -3.9126714774    -6.2636069796     2.9102893729
 He    -6.2678768945    -6.7452611961    -4.3839864754
 He    -0.2161621088    -6.0956318631    -0.9660890820
          6
Energy: -0.01998105455555324 Kcal/mole
 He     3.3376568157     3.8739127233    -7.2020260827
 He     5.0864864305    -1.9159111298     0.3779081408
 He    -2.0510179403     6.4153453404    -2.7927803387
 He     3.2481855676     6.1395119562    -2.3411050315
 He    -2.1577989449     3.5759332364     3.3258543902
 He     3.8050578390    -1.3846367205    -2.3979980558
          6
Energy: -0.002996248142310661 Kcal/mole
 He    -6.5948379885     3.1258400309     7.4303990092
 He    -6.1574415181     0.0208595941     0.6092334417
 He    -3.0632222481     1.3209932504    -2.5702449043
 He     5.2428773269    -5.8964118604     5.7945248249
 He    -1.3958422408     5.8950647191     3.8369126514
 He    -2.7716082244    -6.3538075862    -0.2489424946
          6
Energy: -0.010040192829034166 Kcal/mole
 He     7.0527076464     5.7863334458    -6.2474857237
 He    -0.4162826013     1.2509982182    -0.9170951812
 He     3.7206334363    -0.5110794828     5.2051654766
 He     2.2278920901    -5.7739240900    -0.4821527308
 He     2.3749256010     0.1446071471    -6.4284315870
 He     2.7630391266    -2.0348483640     0.5192683947
          6
Energy: -0.004202386601097853 Kcal/mole
 He    -1.6124754434     4.9951213347     1.2540969416
 He    -2.5835063529     1.3138566471     3.3106065763
 He     2.7234176001    -2.7142016810     2.2760702169
 He     1.1834739960     5.0547113885    -6.8569868735
 He     6.5007151116    -1.7117963869    -2.3649696132
 He    -5.6612730512    -6.4161560584     4.8267562525
          6
Energy: -0.03910192005469667 Kcal/mole
 He     4.6893204131    -5.4519764897    -5.2376565516
 He    -5.1778189048    -5.0206006291    -5.1229731022
 He     3.7972211424     6.9925381145     4.7845670447
 He    -5.5929518473    -2.5330973583    -3.0995407513
 He    -6.6641003813    -6.5668382165    -3.3828273573
 He    -0.1357462611     5.3340719409     7.1102349874
          6
Energy: -0.018608658018239306 Kcal/mole
 He    -1.7355618037    -1.4665684074    -1.1050977744
 He    -0.8073778381    -6.9860764422     3.3016995844
 He    -3.2761129654     3.4210057112    -4.3221074768
 He    -7.2943056147    -2.3955789616    -0.7517749288
 He     0.5717653181     0.5440688726    -5.1554314671
 He    -6.5381585978     3.1804656167    -4.6537640458
          6
Energy: -0.1620523226443168 Kcal/mole
 He    -0.9733041340     3.6970738314     2.1638277198
 He    -3.9539998054     1.6278397540    -0.7553270726
 He    -1.1168522781     3.0056533949    -0.9593303815
 He    -2.4383605543     0.7629694210     1.4695769827
 He     0.5773021438     0.1022703221    -1.4692078740
 He    -3.4759979183     3.9414469094     0.8986121881
          6
Energy: -0.24588632813475098 Kcal/mole
 He    -0.7023491685     3.2585095921     1.6722890956
 He    -4.0557723150     1.6272570764    -1.1762130630
 He    -1.2662269031     2.2589687063    -0.9830149982
 He    -2.6757036893     1.2198845411     1.3023904731
 He     0.0857395991     0.6041616205     0.9050722492
 He    -3.1825087972     3.8646332816     0.3953160358
