          6
Energy: -0.24588632813475098 Kcal/mole
 He    -0.7023491685     3.2585095921     1.6722890956
 He    -4.0557723150     1.6272570764    -1.1762130630
 He    -1.2662269031     2.2589687063    -0.9830149982
 He    -2.6757036893     1.2198845411     1.3023904731
 He     0.0857395991     0.6041616205     0.9050722492
 He    -3.1825087972     3.8646332816     0.3953160358
