          6
Energy: -0.0037033870152748034 Kcal/mole
 He    -4.9450478450     1.7478758717    -2.1868482013
 He     4.2802294626     2.2387557175    -3.0838566729
 He    -4.6973513374    -4.9580886992    -2.2913411286
 He     0.6349979005     0.7379140949     4.3883556599
 He     4.9550908151    -4.4338887138    -4.5745499719
 He    -0.0031941247    -0.1070743723    -1.5040668445
