          6
Energy: -0.25412803562929104 Kcal/mole
 He    -4.0294780749     2.5028024523     2.8482832159
 He    -2.8819655351     0.7396468731     0.9199907623
 He    -4.8538964259     0.2688814908     4.4350153789
 He    -5.6421010837     0.4412389562     1.6852039072
 He    -2.1135758388     0.5554145103     3.6707615162
 He    -3.7050835364    -1.5084200791     2.4894845106
