          8
Energy: -28.931930382090968 Kcal/mole
 H     -0.8987400252     6.2186554246     2.8313248734
 F     -1.4241618200     5.8347314161     2.1852418345
 H     -1.7014022992     4.2455366350     2.6333889579
 F     -1.6933525683     3.4543006408     3.0968215888
 H     -0.7745254690     3.6837005870     4.4774865975
 F     -0.2489789211     4.0675688140     5.1235013111
 H      0.0280436820     5.6568911005     4.6755066947
 F      0.0198633980     6.4481654296     4.2121418071
