          8
Energy: -23.16637843521059 Kcal/mole
 H     -2.2254270815     1.2217996552     3.6956084477
 F     -2.6542962406     1.4139333474     4.4830377390
 H     -2.5773843213     0.7739988890     1.6712555175
 F     -1.8085495382     0.8487098159     2.1654218395
 H     -4.4978134701     1.3277677501     3.9564438413
 F     -4.9518839667     1.6192553344     3.2149966265
 H     -4.4913740905     1.5620614483     0.9164463922
 F     -3.8056552954     1.0705802747     0.5571067338
          8
Energy: -26.62955662366892 Kcal/mole
 H      1.0216581790     0.3896532464     4.1417556988
 F      1.7757502546    -0.1081371430     3.9854263359
 H      2.2578522847    -0.0072742872     2.4499098024
 F      2.1724014706     0.1720561111     1.5546848214
 H      0.6584097966     1.1677759537     1.0845402116
 F     -0.2356536286     1.3437541335     1.1873569034
 H     -0.6644683776     1.0575369263     2.8117294069
 F     -0.6054917776     0.8716599647     3.7077542480
          8
Energy: -23.96859575701839 Kcal/mole
 H      4.0791763760    -4.0899187126     2.6513694755
 F      4.7285033522    -4.7313284633     2.7400092504
 H      4.8393504899    -4.8114635283     1.0308717892
 F      4.7844685445    -4.7201290064     0.1200836815
 H      4.2255358849    -3.4161928948    -0.5509217239
 F      3.9242039344    -2.6170721313    -0.8848289880
 H      3.3409942749    -2.3308628698     0.9143047743
 F      3.2325744640    -2.4343649959     1.8189712622
          8
Energy: -25.192445190745445 Kcal/mole
 H      2.6219308988    -3.0885213128    -4.2370475649
 F      2.9921401045    -2.2562971788    -4.3430529180
 H      3.9769422085    -1.5667788486    -5.9583183572
 F      4.4493855153    -1.9571997674    -6.6404164645
 H      4.3056633876    -3.4962573240    -6.5221604273
 F      4.1317703774    -4.3765390163    -6.3330721854
 H      2.6100391264    -4.5726477733    -5.3678656954
 F      2.0193841390    -4.6107620663    -4.6674636776
          8
Energy: -17.53594164235477 Kcal/mole
 H      5.4897799346     3.3251401683    -2.4935053550
 F      5.4360383772     3.7999149368    -1.7108242168
 H      6.0116243877    -0.5859167700    -0.4956053893
 F      6.8606825010    -0.4065756743    -0.7919600611
 H      7.2345398700     0.3067974393    -2.4824268489
 F      7.0965092735     0.4665910565    -3.3747847111
 H      5.6152911981     1.2979029437    -4.0484796073
 F      5.0053074855     1.9816616732    -4.0842967846
          8
Energy: -21.163546916296923 Kcal/mole
 H      3.9029252942     4.6480131182    -3.8385919029
 F      4.1075998492     3.8069970023    -3.5357896254
 H      4.1770839925     3.7650242720    -1.5028668598
 F      3.7996466720     4.3443852242    -0.9005621560
 H      4.8340014861     5.9899736674    -0.6588228253
 F      4.8620597877     6.6931663596    -1.2467188784
 H      3.5336664509     6.5461853574    -2.7842984742
 F      3.2130902703     6.2529184658    -3.5918345060
          8
Energy: -25.41869674915472 Kcal/mole
 H      2.1500477655     3.1302689836    -5.7576841451
 F      1.8845817268     3.9561204984    -5.4603862175
 H      3.1992452849     4.0170714989    -3.9558211188
 F      3.7163208422     3.5443657945    -3.3641529812
 H      4.5477902201     1.9927547607    -3.7180715337
 F      4.6161287100     1.2167857472    -4.2019009881
 H      3.6091945677     1.2983171327    -5.6550276694
 F      3.0405633222     1.5424823264    -6.3317335618
          8
Energy: -24.41693689360048 Kcal/mole
 H      2.0580108959     4.8137768115     0.6971405713
 F      1.6573848819     5.3403429508     0.0622264844
 H      1.7024344465     4.5279593919    -1.6300363120
 F      1.4299209792     3.8827167817    -2.2218871244
 H      1.2256090266     2.5374626628    -1.1963927440
 F      1.2000005024     1.9339907780    -0.5064254348
 H      2.0726547475     2.3054664003     1.1881880963
 F      2.3428003439     3.1202084011     1.5108424451
          8
Energy: -26.089166531408978 Kcal/mole
 H      2.9947678676     7.0775536395     0.6961786798
 F      3.8708759506     7.3349789377     0.6121796159
 H      4.9346309281     5.9181107345     1.1652038729
 F      5.1542187316     5.0878112586     1.4865650045
 H      3.7521911268     4.2351299892     0.7361906015
 F      2.9830845825     3.9780448069     0.3080885896
 H      2.1141432409     5.2688663082     0.7775227177
 F      1.7126273934     6.0388945820     1.0720231114
          8
Energy: -24.42140373678251 Kcal/mole
 H      4.8261664673    -0.3796384485     4.5580497989
 F      4.4486934629     0.0538584101     5.2725311524
 H      4.1126462363    -1.0102319861     6.9038317518
 F      3.6911381190    -1.8037748945     7.0868879171
 H      3.5054245125    -2.6933060579     5.4162529404
 F      3.8575709130    -3.1180075483     4.6837841310
 H      4.7498385397    -2.2683057042     3.5673494528
 F      5.1149779417    -1.5600056932     3.1136168096
          8
Energy: -25.35208172013796 Kcal/mole
 H      6.8917646930     0.5737266103     1.2629549168
 F      7.3305334361    -0.1967003504     1.4970772958
 H      7.3012704229    -1.0933219001     3.3185660499
 F      7.0449614735    -1.1984756118     4.1927155905
 H      5.7268534466     0.3630052025     4.2984721934
 F      5.3010265586     1.0484060208     3.8628276369
 H      5.4109848561     1.6413085886     2.2249004330
 F      5.7149623083     1.8503988846     1.3853958430
          8
Energy: -25.846208990220646 Kcal/mole
 H      1.6547822079     5.8923089138     3.1266986583
 F      2.1675654186     6.0489934853     3.8706020955
 H      1.4254323315     5.1884977729     5.1469624870
 F      0.9083951658     4.4955370274     5.4525225867
 H     -0.4671813707     3.6781921504     4.1470930877
 F     -0.8972810496     3.6801114625     3.3372168117
 H     -0.2046367989     4.8530976717     2.5068985172
 F      0.2468528590     5.4919329816     2.0284264328
          8
Energy: -24.59439915974454 Kcal/mole
 H      1.1859275897     1.7600666213     5.0626951800
 F      1.2917280494     1.9787107842     5.9469406170
 H      0.3949925701     3.2064401442     6.9388630921
 F     -0.2121257265     3.8927347375     6.9028616307
 H     -0.9705036683     4.3760118722     5.1703289868
 F     -1.1174456854     3.9252824110     4.3853831311
 H     -0.4886660541     2.3675538231     3.8365144761
 F     -0.0269740108     1.5893470245     3.6877743140
          8
Energy: -25.596639345044366 Kcal/mole
 H     -3.8130280053     3.3661997825     7.0467152125
 F     -3.9915390075     2.5412259422     6.6883285707
 H     -4.1395164888     2.9666392901     5.1625798200
 F     -4.3086069813     3.2198091688     4.2975928734
 H     -3.0800584308     4.7365154336     3.9929112124
 F     -2.7886274547     5.4442357767     4.4979744779
 H     -3.2744090308     5.3130798846     5.9874622439
 F     -3.3904098994     5.0628131588     6.8619903249
          8
Energy: -25.720350960193656 Kcal/mole
 H     -5.1620777629     3.1284591143     5.6167540881
 F     -4.5542273634     2.5100772549     5.9151008122
 H     -4.2380890125     1.4191975200     4.6638615558
 F     -4.2325894645     1.1574583372     3.7850263294
 H     -5.1241371394     1.6387413686     2.5151784764
 F     -5.5482930299     2.2246854886     1.9515737666
 H     -6.0363531210     3.2965679352     3.2525973755
 F     -6.0994858667     3.8375600932     3.9903173369
          8
Energy: -24.26214959361579 Kcal/mole
 H     -5.0685253360     2.8615494140     0.0757249802
 F     -4.3119114683     2.6322815579    -0.3888831400
 H     -3.1464956141     2.8648084753     0.8612653937
 F     -2.7506560681     2.9820373306     1.6800800549
 H     -3.5838706188     3.5544834290     3.4712629157
 F     -4.4127244900     3.4201559483     3.8398363660
 H     -5.5342598237     3.0813385561     2.5689225361
 F     -5.8057717694     2.6839694392     1.7883662932
          8
Energy: -26.174688368564432 Kcal/mole
 H     -3.1023345491     4.7635954439     2.1350433792
 F     -3.8702444796     4.6097530366     1.6580361966
 H     -5.0286238829     4.1909065541     2.8561333581
 F     -5.1765353004     3.8309302344     3.6864515271
 H     -4.2316058846     4.6589882646     4.7201723490
 F     -3.4939481049     5.0236270063     5.1248803774
 H     -2.3452254017     4.6170099332     4.0250084126
 F     -1.8418604491     4.4849334689     3.2699795839
          8
Energy: -26.70868201518431 Kcal/mole
 H     -4.6695826659     1.5490399061    -0.9871671462
 F     -4.3403627032     2.3971659390    -1.1019950547
 H     -3.8017659328     2.8972859646    -2.9088374199
 F     -4.0151115148     2.8651602846    -3.8000952969
 H     -5.0649527227     1.4076931658    -4.0079062981
 F     -5.5554292955     0.6444861382    -3.8743519478
 H     -5.7403316748     0.1430626610    -2.1733177929
 F     -5.4306745844     0.1319541697    -1.3102545925
          8
Energy: -25.86398335314516 Kcal/mole
 H     -7.2667037348    -3.5427781249    -3.0715109559
 F     -7.2767827044    -3.6672467103    -2.1630534800
 H     -5.6823528704    -4.0417757653    -1.9645770631
 F     -4.7942471898    -4.2645031686    -2.0150726454
 H     -4.1456090779    -4.7311916702    -4.0878780831
 F     -4.5852964415    -4.7960165215    -4.8899764318
 H     -6.1729504076    -4.2608377975    -4.9445475434
 F     -6.8905255814    -3.7244933783    -4.7488193292
          8
Energy: -26.92024920812301 Kcal/mole
 H     -5.9080788209    -5.5165200489     2.1708558454
 F     -5.4404291420    -4.7606212447     2.3962660840
 H     -4.1736100679    -4.8568663136     1.3426752858
 F     -3.6154301539    -4.9794408771     0.6255283971
 H     -4.1024378753    -6.3065773075    -0.0515642040
 F     -4.6970504220    -6.9820233441    -0.2279092375
 H     -6.0183426148    -7.2061353928     0.7844013909
 F     -6.4631776780    -7.0432280681     1.5695586810
          8
Energy: -25.67632166602553 Kcal/mole
 H     -3.8562978919    -1.2824703722     2.3622529046
 F     -4.1217309879    -2.0188344335     1.8845477228
 H     -3.5666765698    -2.2505887687     0.2622740885
 F     -3.0962339027    -2.1037880622    -0.5110448945
 H     -2.4273315838    -0.5203262061     0.1591000490
 F     -2.0329598846     0.0303140223     0.7772871580
 H     -2.7031936340     0.4254515420     2.6719336927
 F     -3.2716752309     0.0094020699     3.2589775673
          8
Energy: -25.518518943333362 Kcal/mole
 H     -3.1496586383    -4.8792267639    -2.8322913786
 F     -3.0198830259    -5.5859323820    -3.4020408497
 H     -4.0433650212    -7.0365775192    -2.6854064098
 F     -4.5414745208    -7.3955734557    -2.0043059444
 H     -5.1987201036    -6.0316474843    -1.1383014173
 F     -5.3868833040    -5.2716314559    -0.6609553723
 H     -4.4726749749    -3.9816507533    -1.3942974285
 F     -3.9340319855    -3.4381771348    -1.8996578502
          8
Energy: -26.67419880024633 Kcal/mole
 H     -1.2754007049    -6.3489061973    -3.6104161863
 F     -1.7111433451    -7.1341469515    -3.7959271278
 H     -3.3513986676    -6.8136717926    -4.5409227656
 F     -4.1424648767    -6.3941235154    -4.7386156989
 H     -3.9760671028    -4.9493724429    -4.0222550419
 F     -3.6775321484    -4.1936584286    -3.5972112682
 H     -2.1743020148    -4.3039808286    -3.4758724576
 F     -1.3292536275    -4.6458960440    -3.3764933415
          8
Energy: -26.09529432806744 Kcal/mole
 H     -6.7823392101    -2.8340516398    -0.2716628416
 F     -7.4759817023    -2.4264656777     0.1683630400
 H     -6.7396012523    -1.2352700939     1.2715779496
 F     -6.1749112931    -0.7662257938     1.8211338563
 H     -4.3961585305    -1.0069073791     1.5574413853
 F     -3.7044492826    -1.2138467978     0.9921066230
 H     -4.4602982546    -2.7148664551     0.1174459705
 F     -5.0228086919    -3.3357500863    -0.2553469002
          8
Energy: -25.929103291897746 Kcal/mole
 H     -2.5307240093    -0.6229940819    -3.7619603607
 F     -3.0241241139    -1.3207256761    -3.4293705845
 H     -3.0596791972    -2.4674496547    -4.8707732045
 F     -2.9715043606    -2.8070664669    -5.7179890088
 H     -2.0573697972    -1.8521621279    -6.7305581137
 F     -1.6370948228    -1.1951857834    -7.2128858329
 H     -1.2293339314    -0.1828710028    -5.6817336657
 F     -1.1351141532     0.0935465735    -4.8124782620
          8
Energy: -27.16299163476768 Kcal/mole
 H     -7.2339043465     0.3980914702    -6.1102664975
 F     -7.1044462061    -0.1732607472    -5.4047976934
 H     -6.1267406228     0.6682764599    -4.3245520478
 F     -5.8438005315     1.4668817382    -3.9737479512
 H     -5.7541916370     2.8969065509    -5.0607376038
 F     -5.7955711913     3.3126680346    -5.8770213297
 H     -6.9294667141     2.3141885295    -6.8892120145
 F     -7.4878413954     1.6333155784    -7.1451783005
          8
Energy: -26.4776123218154 Kcal/mole
 H     -3.8230808365     2.6315917823    -5.5511903221
 F     -3.8460142158     3.5415447665    -5.6623146965
 H     -3.0966571528     4.6132617864    -4.3892006979
 F     -3.0031479488     4.8346466473    -3.5042522406
 H     -3.5881773867     3.7257453095    -2.4239609406
 F     -3.9913180440     2.9835304557    -2.0669123147
 H     -4.1676738519     1.8162583092    -3.4335102743
 F     -4.1199491209     1.3614302987    -4.2283327897
          8
Energy: -27.22546905787914 Kcal/mole
 H     -2.8972088128     3.9629824197    -0.3507257101
 F     -2.7324625446     3.5176451645     0.4337629108
 H     -4.1145513997     3.9138616434     1.4589986969
 F     -4.7729672128     4.3787492914     1.8963281972
 H     -5.3075575019     5.3674795964     0.5669129987
 F     -5.5427697998     5.5704283292    -0.2958592695
 H     -4.3060506477     5.1022992168    -1.2890571494
 F     -3.4797990909     4.8792644471    -1.6183789623
          8
Energy: -28.172815804955235 Kcal/mole
 H     -3.1527462868     3.1273273201     4.0390793061
 F     -4.0451063094     2.9459301337     3.9310161265
 H     -5.0762255437     4.1175264225     4.4752124056
 F     -5.4507100125     4.9275354250     4.6862474703
 H     -4.0008827016     5.8730991487     4.8954920411
 F     -3.1244356849     6.1308168527     4.9749351774
 H     -2.1110580347     4.8610303204     4.4527092672
 F     -1.7596093351     4.0275123065     4.3023080301
          8
Energy: -27.574146614696616 Kcal/mole
 H     -3.3181945228     2.1968077089     5.4816295259
 F     -2.6224634219     2.2232646730     4.8848487753
 H     -3.1013272494     2.6310202464     3.4185447289
 F     -3.5035978954     2.9845829238     2.6741921508
 H     -4.8361345927     3.6379142178     3.5851289795
 F     -5.3801716978     3.7590781705     4.3132992377
 H     -5.2314713195     2.7584159600     5.7227297717
 F     -4.7129866709     2.2154965451     6.2493237121
          8
Energy: -27.59830374986697 Kcal/mole
 H     -0.9725266662     6.1505591672     6.5631585484
 F     -0.4326587412     6.5874546826     5.9643648175
 H     -0.3241016169     5.8847631213     4.5147210123
 F     -0.5694610656     5.3544679615     3.8079857121
 H     -2.2543143353     4.9107603493     4.0061128039
 F     -3.0257130089     4.7335802526     4.4691897950
 H     -2.6963431531     4.8689339138     6.2166032968
 F     -2.2630700465     5.0039690960     7.0134275651
          8
Energy: -28.129982883770964 Kcal/mole
 H     -4.0888773999     4.2635163618     2.4358310587
 F     -4.7337264433     3.9726007097     1.8523700107
 H     -5.1010243015     2.5030014402     2.4892125935
 F     -5.0635016017     1.8301597912     3.1111170575
 H     -4.2722703377     2.1568010093     4.5415693505
 F     -3.8591481821     2.6140079482     5.2206723616
 H     -3.2823437010     3.9309153266     4.3285275495
 F     -3.0207014525     4.4924483537     3.6524262307
          8
Energy: -26.34900339725624 Kcal/mole
 H     -6.3041377229     5.1488533641     2.2074335285
 F     -6.1315604147     5.5476026706     1.3999033041
 H     -4.5915166928     5.0813123394     0.6548702810
 F     -3.8299674097     4.5705171147     0.6504062239
 H     -3.5072847109     3.6686657760     2.2355114613
 F     -3.4600350616     3.1894737771     3.0159161633
 H     -4.8409572735     3.9235988463     3.7745240544
 F     -5.6206268893     4.4057398526     3.7511929539
          8
Energy: -26.852131707737215 Kcal/mole
 H     -6.0263852749     3.2083306441     3.0049487372
 F     -6.4385293140     2.4146882309     2.8020743650
 H     -6.6062831141     2.5187050442     0.8640638953
 F     -6.5407967521     3.1674295324     0.2192716227
 H     -5.7966807420     4.7159334926     0.3236218916
 F     -5.4980772455     5.5284566664     0.6261628705
 H     -5.4697212332     5.1662036735     2.2183878904
 F     -5.5629377805     4.7779737870     3.0439042321
          8
Energy: -27.05919588322041 Kcal/mole
 H     -7.1597120944     2.5642361538     1.9287864590
 F     -7.0691679315     1.7184411135     2.2713087274
 H     -6.1576838981     0.9087440201     1.3490881718
 F     -5.7059669155     0.4218052032     0.7168450570
 H     -5.6292978944     1.4727278295    -0.6729141423
 F     -5.8380492325     2.1796300217    -1.2184424820
 H     -6.5465296899     3.4429153073    -0.1201979870
 F     -6.7917798081     3.7507679921     0.7080339274
          8
Energy: -28.18004771726504 Kcal/mole
 H     -7.0336629272     1.1007379523     2.1951016441
 F     -7.4452031633     0.4773162730     1.6632472994
 H     -7.2396262776     0.9337984495     0.0931526384
 F     -6.9866286302     1.3900606971    -0.6609733138
 H     -6.1955231906     2.6814785573    -0.0414045955
 F     -5.7285517422     3.2746807531     0.4791122834
 H     -5.8718093239     2.8484548750     2.0732603033
 F     -6.0446106688     2.4089515234     2.8593045128
          8
Energy: -28.174522022091082 Kcal/mole
 H     -4.7341820320     1.6221287130     2.7666780284
 F     -5.1606275104     1.0809373960     2.1615786876
 H     -6.3445859228     2.0385431848     1.2226254865
 F     -6.9310477300     2.7297960347     1.0843466154
 H     -6.1396972008     4.0784151019     1.6303448618
 F     -5.5349548633     4.6407308335     2.0290637141
 H     -4.5611745916     3.7516623153     3.1173952141
 F     -4.1589202439     3.0639924708     3.5714773925
          8
Energy: -28.120826333214893 Kcal/mole
 H     -2.3383034710     2.2157594390     2.5333694590
 F     -2.8858729897     1.5526580195     2.2150093961
 H     -2.8593461403     0.3258988857     3.3047144897
 F     -2.7421605465    -0.2463983795     4.0115612743
 H     -2.3437570982     0.7699478895     5.3175322790
 F     -1.9807027715     1.4800663597     5.7700942241
 H     -1.7633725630     2.6639107047     4.6387578693
 F     -1.6200676075     3.1277958981     3.8608354972
          8
Energy: -28.17466660282119 Kcal/mole
 H      0.4939773020     3.9429091250     2.5804196685
 F      0.6763973099     3.1383477459     2.1800536758
 H      0.3521700799     1.8926959917     3.2176354541
 F     -0.0984669514     1.3984208182     3.8449370713
 H     -1.1855699358     2.5213109073     4.5218849753
 F     -1.5626170804     3.3196501509     4.7696326352
 H     -0.7623118694     4.6091406276     4.0423283276
 F     -0.1460988585     5.1403845726     3.6193030374
          8
Energy: -28.133592083482398 Kcal/mole
 H      0.4981058708     4.8293066942     5.2158484891
 F      0.7843846151     5.5123036491     4.6750632821
 H      0.2805858890     5.1744726218     3.1592457440
 F     -0.1299319856     4.7442908119     2.4611714749
 H     -0.5434120962     3.2327535138     2.9925171302
 F     -0.6438514046     2.4077146119     3.3799597138
 H     -0.5016202987     2.9347277254     4.9771764038
 F     -0.2673398446     3.4630310326     5.6891435971
          8
Energy: -27.725339514999632 Kcal/mole
 H      1.6924438209     4.9974612561     4.3593417693
 F      2.5336231323     4.6354268929     4.4066438404
 H      2.3376760715     3.3891911906     3.2159198770
 F      1.9939426243     2.8762699568     2.5379463338
 H      0.6193889080     3.5331791430     1.8600056522
 F     -0.0856842889     4.1084110537     1.7465638786
 H      0.0562932992     5.1298303005     3.1386535012
 F      0.3118503258     5.5295853593     3.9233671426
          8
Energy: -28.103631736639613 Kcal/mole
 H      0.7524343224     4.9344678584     2.8645093247
 F      1.0420424109     4.2641852588     3.4192501578
 H      2.2108218261     3.3644659904     2.6615136676
 F      2.8714694573     3.0974672464     2.0843261955
 H      2.8711360094     4.1904380668     0.8286635151
 F      2.5960081491     4.9246386030     0.3531183195
 H      1.1981604710     5.8683190646     0.8933903571
 F      0.5763151894     6.0895131081     1.5299990602
          8
Energy: -28.06682953158918 Kcal/mole
 H      1.6690083025     5.2466369260     2.1863656465
 F      2.1954469652     5.5543064470     2.8712676836
 H      3.4406331997     6.7209973135     2.2106180533
 F      3.7985066419     7.1527325894     1.4850698117
 H      3.0287428739     6.6365985717     0.1363974073
 F      2.5170504502     6.3231672676    -0.5570149384
 H      1.3225968427     5.4681242395     0.1879759688
 F      0.8432908852     4.9920607133     0.8080713793
          8
Energy: -28.71420298866221 Kcal/mole
 H     -0.0030905351     4.2293542846     0.3893647615
 F     -0.6248519448     4.6315732988    -0.1514879115
 H      0.1588880507     5.4493303074    -1.4283280141
 F      0.8514816251     5.7378337825    -1.9555555604
 H      2.2817834386     5.5018304260    -1.1150264686
 F      2.8811082842     5.2145697034    -0.4832195308
 H      2.1214718935     4.1832175078     0.5355684002
 F      1.4845592152     3.7498758644     1.0330081055
          8
Energy: -28.427891580937455 Kcal/mole
 H     -0.1142983490     4.3020908033     0.4334312469
 F     -0.3053484740     4.2743254756    -0.4630161505
 H     -0.4942989812     5.8979257083    -0.8067316821
 F     -0.4650098212     6.8130474993    -0.7559059730
 H      0.2280317812     7.3440452686     0.6725459744
 F      0.5264905766     7.2882968998     1.5378225006
 H      0.3805259086     5.7344256863     2.0024089271
 F      0.3489833956     4.8188781165     1.9615834773
          8
Energy: -28.74555348423931 Kcal/mole
 H     -1.4169149811     4.7724990550    -0.0173773371
 F     -1.9607932460     5.3773370551    -0.4407641894
 H     -1.1768996227     6.8306472015    -0.3301894505
 F     -0.5488146078     7.4547876176    -0.0917634557
 H      0.4818437794     6.8125200644     1.0350701994
 F      0.9636510030     6.2676792916     1.5935496810
 H      0.3783303437     4.7260071229     1.2091848461
 F     -0.1725474235     4.0768358147     0.8685981490
          8
Energy: -28.341678900267766 Kcal/mole
 H     -0.7085650545     4.1956241373     2.5472855972
 F     -1.3815497904     4.7651818059     2.7994454818
 H     -0.8679552298     6.3727864855     2.6542628883
 F     -0.3158555645     7.0807444620     2.4675265421
 H      1.2513446659     6.5055386059     1.8854037387
 F      1.9308880109     5.9202570875     1.6942091092
 H      1.2817909840     4.3474690495     1.9786412293
 F      0.7176535101     3.6338835093     2.0945445828
          8
Energy: -28.754260345728284 Kcal/mole
 H     -0.6178244131     4.3554280342     3.1558607027
 F     -1.2178329059     4.8884355219     3.5994616795
 H     -0.7311898430     6.4738950699     3.3143708260
 F     -0.3340289720     7.2365996733     2.9958838867
 H      0.6769628502     6.7598743498     1.7180734972
 F      1.1339282726     6.1903546616     1.1633493068
 H      0.8904479553     4.5796878909     1.6404716067
 F      0.5935603263     3.8617937027     2.1276827213
          8
Energy: -28.839513039539185 Kcal/mole
 H     -0.5089253428     4.4429164948     3.2110079148
 F     -1.1487263340     4.9222939057     3.6601637783
 H     -0.9161604146     6.5660959432     3.2311895166
 F     -0.6088135463     7.3235768376     2.8156782685
 H      0.6047086401     6.8645546708     1.7400324031
 F      1.1664319175     6.3302353290     1.2502785868
 H      1.0230977137     4.7444194500     1.7457122951
 F      0.7589791570     3.9949825926     2.2033964491
          8
Energy: -28.9213770223528 Kcal/mole
 H     -0.4998699292     4.4390517902     3.2392731220
 F     -1.1215995533     4.9382613562     3.6921871136
 H     -0.8957795888     6.5428920653     3.2697048041
 F     -0.5779632873     7.3045877379     2.8700781021
 H      0.5726391684     6.8381050053     1.7556138814
 F      1.1446523583     6.3293338296     1.2507952989
 H      1.0145706243     4.7403030944     1.7733112650
 F      0.7453866723     3.9890008703     2.2249460377
