          8
Energy: -28.9213770223528 Kcal/mole
 H     -0.4998699292     4.4390517902     3.2392731220
 F     -1.1215995533     4.9382613562     3.6921871136
 H     -0.8957795888     6.5428920653     3.2697048041
 F     -0.5779632873     7.3045877379     2.8700781021
 H      0.5726391684     6.8381050053     1.7556138814
 F      1.1446523583     6.3293338296     1.2507952989
 H      1.0145706243     4.7403030944     1.7733112650
 F      0.7453866723     3.9890008703     2.2249460377
