          8
Energy: -28.927930971926088 Kcal/mole
 H     -0.6933512193     3.6376322620     4.4763903998
 F      0.0662723458     3.7101741564     4.9849164196
 H     -0.1001828287     5.0495943083     5.9917734400
 F     -0.4434100622     5.7939764635     6.4028443257
 H     -1.9431318817     6.0806952972     5.7249347371
 F     -2.6976585342     6.0114018232     5.2084301921
 H     -2.5367240187     4.6737600146     4.2225336071
 F     -2.2023713566     3.9232594680     3.8152913856
