          8
Energy: -28.460579717205604 Kcal/mole
 H     -1.8076106414     3.6772000319     4.9239134123
 F     -2.3931425144     3.0573544267     4.5865221683
 H     -2.1098032300     1.5464090417     5.2226446129
 F     -1.7724793466     0.8344216058     5.6918732232
 H     -0.3044460713     1.3799626331     6.4278949019
 F      0.3538907041     1.9246405450     6.7607727508
 H     -8.995189E-40     3.6052532455     6.2652639130
 F     -0.4972250230     4.2741337425     5.8816640243
          8
Energy: -28.10232306501399 Kcal/mole
 H     -3.3901938247     1.6087920999     4.0970834392
 F     -3.8031705410     0.9913708943     3.5593750734
 H     -2.5856178408    -0.2820396799     3.4006634636
 F     -1.8534894879    -0.7679029353     3.6629876369
 H     -1.4726887829    -0.3045055593     5.1904148365
 F     -1.3162869124     0.1424621726     5.9756837723
 H     -1.9812871918     1.6646208976     5.6112659982
 F     -2.4401931642     2.3739851253     5.2547597556
          8
Energy: -28.437215901934536 Kcal/mole
 H     -1.7300782564    -0.5053215116     3.8000918463
 F     -2.0976158251     0.3346244598     3.7828900798
 H     -0.9208998954     1.4387653533     4.4916654304
 F     -0.1642234400     1.7244918981     4.9237419090
 H      0.8326542503     0.3582586677     5.3516689969
 F      1.1030556785    -0.5082871243     5.4815553237
 H      0.1023758075    -1.4671482318     4.5972712136
 F     -0.6360069219    -1.7959330830     4.1641656068
          8
Energy: -28.455990447519895 Kcal/mole
 H     -1.6112908506    -1.3480593826     4.8368721415
 F     -1.9316290394    -1.1439958494     5.6715160890
 H     -1.6144579745     0.5016673306     6.1097860276
 F     -1.2678854739     1.3490167868     6.0571039543
 H     -0.4139544297     1.3227959584     4.6314844329
 F     -0.0548090632     1.0884868537     3.8209273102
 H     -0.5347032722    -0.4652090394     3.4463450565
 F     -0.9547326961    -1.2784940397     3.3912833513
          8
Energy: -28.411360607138988 Kcal/mole
 H     -0.0223614745     0.1036521198     5.3948022904
 F      0.4739035338     0.8281032374     5.1306420742
 H     -0.5497758909     2.1356762486     5.0684879008
 F     -1.3669698271     2.5495884368     5.1104375273
 H     -2.5930027957     1.5209449835     5.6337681962
 F     -3.0353346881     0.7521065444     5.8664029991
 H     -1.9541688420    -0.4341376943     5.8060898652
 F     -1.2059550080    -0.9642736715     5.8015177415
          8
Energy: -28.582319049186026 Kcal/mole
 H      0.0055048953    -0.3303104814     3.8980404975
 F     -0.0166213043    -0.7612977330     3.0889364126
 H     -1.3134504617    -0.1894704049     2.0773442990
 F     -1.9557974767     0.3928516957     1.7787136186
 H     -2.2562210455     1.3769584819     3.0533553059
 F     -2.2824290274     1.7645165788     3.8840182117
 H     -1.0378870814     1.2550196989     4.8588176775
 F     -0.3134891188     0.7803271283     5.1601539600
          8
Energy: -28.4156322995199 Kcal/mole
 H     -0.7037876359     0.3232763239     1.3924324766
 F     -1.4362438961     0.5215776414     0.8775796681
 H     -2.4203900660     1.5931581337     1.6088855140
 F     -2.8891431169     2.0775086262     2.2306283690
 H     -1.9570074205     1.9782964164     3.6902495197
 F     -1.2553897161     1.8377725723     4.2637254529
 H     -0.1403968172     0.9463565593     3.4355827526
 F      0.3193051663     0.4443144067     2.8211588246
          8
Energy: -28.039636271684344 Kcal/mole
 H     -1.1513194074     2.5249565609     3.9247518110
 F     -0.7633641935     3.1424193535     3.3687666927
 H     -2.0145657269     3.5619577156     2.2857117828
 F     -2.8377097556     3.4563062496     1.8956340011
 H     -3.9972452406     2.4462125526     2.5945213021
 F     -4.2567619745     1.8687304760     3.2578873519
 H     -3.0264987029     1.6510739056     4.3563193244
 F     -2.2049399388     1.5663787264     4.7547624493
          8
Energy: -28.407672008239047 Kcal/mole
 H     -3.7650654321     3.5608161973     5.1979213693
 F     -4.4819015981     4.0865299643     4.9728437241
 H     -4.5334286499     4.5739574580     3.3490622939
 F     -4.2696900586     4.6186955404     2.4719480144
 H     -3.0682064979     3.5142743288     2.2701739438
 F     -2.4914856318     2.8142743039     2.4053849184
 H     -2.2658406174     2.6756043742     3.9840741060
 F     -2.3024579966     2.7104509834     4.8996798515
          8
Energy: -28.381717642100313 Kcal/mole
 H     -5.5085039261     2.4546936996     6.8584886794
 F     -5.6671191199     3.2501847699     6.4307923182
 H     -4.3369063128     3.4018729175     5.4273250658
 F     -3.5725532245     3.2275843844     4.9516393885
 H     -3.3286078053     1.5903604723     4.8603947596
 F     -3.4350688577     0.6927367406     5.0147536943
 H     -4.3122315354     0.6568934761     6.3726569858
 F     -4.8948654609     0.8856926748     7.0427895365
          8
Energy: -28.46844936380657 Kcal/mole
 H     -6.1987431854     1.2302449282     7.0834135391
 F     -5.5339900338     1.8514717676     7.1977352842
 H     -4.4553395643     1.7572400173     5.9623831470
 F     -4.0255450779     1.4952856913     5.1958678957
 H     -4.9757199803     0.4001868153     4.4928518090
 F     -5.6789735313    -0.1778143401     4.3822258292
 H     -6.7007839496    -0.2960032494     5.7597913733
 F     -7.0996633911    -0.0941017114     6.5604285946
          8
Energy: -28.38284493728395 Kcal/mole
 H     -4.7474882638     1.3848566805     6.0541512086
 F     -4.5401537966     1.6586299797     5.2038867795
 H     -5.5562673732     1.0872734517     4.0066027357
 F     -6.1931394014     0.5521326073     3.6207176541
 H     -6.5443070373    -0.4658577806     4.8782929073
 F     -6.5797368123    -0.9759596204     5.6394958002
 H     -5.8513156998    -0.1042246492     6.9393007874
 F     -5.3626896687     0.5388208324     7.3736118629
          8
Energy: -28.486028888764707 Kcal/mole
 H     -5.6667886896     1.1497197987     4.6316867203
 F     -4.8429835772     1.5107240143     4.8103206844
 H     -3.9429819442     0.3763748635     5.5423955387
 F     -3.5938609787    -0.3666707797     5.9509132538
 H     -4.6732816334    -1.5100864796     5.7074221025
 F     -5.4004309052    -2.0235485234     5.4871957052
 H     -6.4293399423    -0.9085075026     4.8146019438
 F     -6.8090120100    -0.1350662836     4.5007121516
          8
Energy: -28.292511398996567 Kcal/mole
 H     -5.0710262358     0.5189325115     3.5199130046
 F     -4.5552020726     0.2405885970     2.8146902753
 H     -3.0082916254    -0.5381234081     3.2831160120
 F     -2.3136927609    -0.7773776187     3.8319136433
 H     -3.0097954193    -0.4620364522     5.4222315859
 F     -3.5694781133    -0.2385805608     6.1133985314
 H     -4.9679566070     0.5271472333     5.6190724130
 F     -5.6146095946     0.8731760213     5.0686244214
          8
Energy: -28.64828697322025 Kcal/mole
 H     -4.9117405522     0.7398867906     3.9395625944
 F     -4.5029245211     0.6882361846     3.1203613568
 H     -2.8193211684     0.9834849320     3.2460382303
 F     -2.0023597188     1.1894615449     3.6080280436
 H     -2.2494940859     1.4607973636     5.1969544291
 F     -2.5948358881     1.4790440065     6.0462453684
 H     -4.2550250096     1.1600250696     6.0043177165
 F     -5.0770750823     0.9265206601     5.6717543863
          8
Energy: -28.332208181176696 Kcal/mole
 H     -4.3132171216     3.4458881883     4.0254893124
 F     -3.5567712744     3.6702900051     3.5582393739
 H     -2.4320670568     4.5414803258     4.5465227135
 F     -1.9354463404     4.7276513294     5.2945850248
 H     -2.9160544403     4.2855787419     6.5811106157
 F     -3.5911749385     3.9675898798     7.1140124794
 H     -4.8881306309     3.5237156824     6.0967609316
 F     -5.4084169240     3.3724463453     5.3569577410
          8
Energy: -28.511436674406497 Kcal/mole
 H     -3.6402324918     3.5592489795     4.2143792669
 F     -3.1292678171     4.0739847668     3.6532632624
 H     -1.7703693055     4.3803304878     4.5692980709
 F     -1.1817526792     4.3949450767     5.2722958526
 H     -1.8997656312     3.7343338711     6.7231581099
 F     -2.4272722554     3.2702015284     7.3124007848
 H     -3.6023422277     2.7929529057     6.2709347121
 F     -4.1320695508     2.6681379189     5.5328973267
          8
Energy: -28.518503973156555 Kcal/mole
 H     -2.1246103821     2.1735515790     3.4155725101
 F     -1.5285290108     1.6960288453     3.9230644190
 H     -0.5573973754     2.8702341401     4.6793373004
 F     -0.2387617045     3.6838760175     4.9574509542
 H     -1.1441878673     4.9845977421     4.1439424884
 F     -1.7440782427     5.3367015074     3.5464113377
 H     -2.5528754826     4.1197007801     2.8252124165
 F     -2.9048018515     3.3107558946     2.5749225783
          8
Energy: -27.933022697422416 Kcal/mole
 H     -2.7960601385     2.7883643405     2.3741236528
 F     -2.0362745050     2.7490358016     1.8621978212
 H     -1.1143986379     3.8899807784     2.5442087106
 F     -0.6771385647     4.5792851320     2.9620030816
 H     -1.8952947407     5.1394681729     4.0910037333
 F     -2.6380953725     5.1105972085     4.6279419876
 H     -3.6294830882     3.7226180672     4.2033049814
 F     -3.9161182261     3.0882535050     3.6063871480
          8
Energy: -28.61708407710961 Kcal/mole
 H     -2.0432662108     2.1510362479     2.4427219312
 F     -1.2127658396     1.8009637404     2.2735847886
 H     -0.2036201224     3.0988912730     2.2822146249
 F      0.0826184484     3.9682669694     2.3382715526
 H     -1.2127054653     5.0074932371     2.6441777880
 F     -2.0674648826     5.3083881447     2.7846683324
 H     -3.1123510126     4.0066240029     2.8935795229
 F     -3.3801671103     3.1348980968     2.7973637103
          8
Energy: -28.366300933062007 Kcal/mole
 H     -0.2620597957     6.0623423337     1.7156354690
 F      0.3316543115     5.4946277552     2.1231802104
 H     -0.4778443788     4.3056049522     3.0225092244
 F     -1.1600088291     3.8584071179     3.4415017777
 H     -2.6718463333     4.4357289619     2.8487861949
 F     -3.2610005409     4.8613694584     2.2896650206
 H     -2.5281275136     6.1361117841     1.5100726368
 F     -1.8451920186     6.6548775256     1.1854648502
          8
Energy: -28.5733599382842 Kcal/mole
 H     -0.7869909712     5.9572654085     0.6865614142
 F      0.0018195975     5.5112663041     0.8271021040
 H     -0.5119399041     4.0345378009     1.3610785046
 F     -1.0704775693     3.3235983244     1.5143421247
 H     -2.7539681058     3.5883337413     1.1987788292
 F     -3.5357301765     4.0204066792     0.9912937911
 H     -2.9923389956     5.6082796995     0.7584921212
 F     -2.4408410072     6.3315617453     0.6418642896
          8
Energy: -28.7142127844927 Kcal/mole
 H      0.0970633976     5.3534903040     1.0840849000
 F      0.3622113075     4.4785262755     1.0132080008
 H     -0.9191087946     3.5837939929     1.7326789696
 F     -1.7281206389     3.3968839204     2.1218491902
 H     -2.5989579976     4.7675740787     2.4959670236
 F     -2.8523261032     5.6403016323     2.6186055995
 H     -1.6564240647     6.5152380432     1.8985337719
 F     -0.8909815372     6.7336902030     1.4432696827
          8
Energy: -28.716538762647502 Kcal/mole
 H      0.4220441131     4.3092888605     0.9715330678
 F      0.7529786123     3.4884875252     1.2116507998
 H     -0.3716758811     2.8210163286     2.3061183120
 F     -1.1611244489     2.7375634416     2.7651341880
 H     -2.0947132744     4.1573168749     2.5881186075
 F     -2.3424975367     5.0042128703     2.3386008077
 H     -1.1370912952     5.6810137754     1.3676220304
 F     -0.3848823973     5.7531553847     0.8481353971
          8
Energy: -28.295534343919826 Kcal/mole
 H      0.7948934380     4.2088149125     1.2721021533
 F      1.2582294970     3.7238165684     1.8973903289
 H      0.3793808498     3.5779141539     3.2884530968
 F     -0.3055805568     3.5961970319     3.8978647867
 H     -1.7791269710     4.4173204894     3.2263465827
 F     -2.2425173624     4.8132170222     2.5412011380
 H     -1.2215991628     5.0755716905     1.3056144491
 F     -0.5466400218     5.1505384527     0.6894171248
          8
Energy: -28.676606809265706 Kcal/mole
 H      0.5833216255     6.2019742185     1.9733744154
 F      0.8421278431     6.5426975356     2.7844329601
 H     -0.2195762787     5.9898441377     4.0201374625
 F     -0.9259868950     5.5392435405     4.3927393183
 H     -1.7481432556     4.8260054840     3.1001524486
 F     -2.0467062995     4.5993281249     2.2632734348
 H     -0.9283412418     5.0795598838     1.1516003808
 F     -0.2313283441     5.5001433527     0.7294966423
          8
Energy: -28.627613653938113 Kcal/mole
 H      0.8701713428     5.0164630412     3.0491264740
 F      0.6128355175     5.8410290560     3.3569546083
 H     -0.9029168702     5.6583236471     4.1071180517
 F     -1.6675134830     5.2646533457     4.4254020653
 H     -1.8612346217     3.8312698260     3.6512237706
 F     -1.6410144637     3.0880361641     3.1613301028
 H      0.0040738814     3.0975733508     2.7400668188
 F      0.8460140044     3.4207516540     2.5739896872
          8
Energy: -28.561593489157815 Kcal/mole
 H      1.1161755102     5.2044377388     4.3799223628
 F      0.8480366232     5.9716059790     3.9551360302
 H     -0.8723855615     6.1920409682     4.1635064492
 F     -1.7630461846     6.0148475001     4.2908450889
 H     -1.8455599030     4.4527265904     4.9767544186
 F     -1.5820213743     3.6905112800     5.4131765360
 H      0.1109000196     3.5376902979     5.3317439291
 F      0.9984193782     3.7209648933     5.1917124651
          8
Energy: -28.476999723255744 Kcal/mole
 H      0.7894021500     5.2130936398     4.6174244359
 F      0.7313296568     6.1036817560     4.4067840012
 H     -0.8120025946     6.5575561217     3.9089733430
 F     -1.6645490766     6.4205180321     3.6003083822
 H     -1.9982180542     4.8325052909     3.8164764715
 F     -2.0589113380     3.9581576700     4.0861458304
 H     -0.5138829474     3.4994420719     4.7089976088
 F      0.3595476878     3.6197183807     4.9610720722
          8
Energy: -28.70004586344845 Kcal/mole
 H      0.5197906997     5.1676080513     4.7833109880
 F      0.2630901536     6.0101561564     4.5281511947
 H     -1.2644486208     6.2292462865     5.1327446002
 F     -2.0895621978     6.0963712098     5.5101314030
 H     -2.2107642354     4.4194177479     5.8772396307
 F     -1.9433282275     3.5577391337     6.0411815334
 H     -0.2998210674     3.4709271552     5.6996257387
 F      0.5597561147     3.6925403148     5.4696177488
          8
Energy: -28.571810627042822 Kcal/mole
 H      0.4338280281     6.2190447443     4.5181810373
 F      0.2753969249     6.5862984348     3.6930063210
 H     -1.3925273376     6.6972580150     3.4748003985
 F     -2.3001731938     6.6152807924     3.5765242140
 H     -2.4245239528     5.5768371815     4.8738784491
 F     -2.2163573847     5.1003374014     5.6291953624
 H     -0.5606347617     5.3401397343     6.1501561579
 F      0.3257045970     5.5398308902     6.0259990658
          8
Energy: -28.55583360683977 Kcal/mole
 H      0.3861444696     5.8487896473     3.8492643050
 F      0.2830688636     6.7552204358     3.9422570197
 H     -1.3428801307     7.0914363518     4.3568454026
 F     -2.2208450589     6.9957544227     4.6036480632
 H     -2.6327949501     5.3789261008     4.3668754452
 F     -2.5274875553     4.4684137056     4.3391891529
 H     -0.8914369048     4.1609793547     4.0596042262
 F      0.0034179834     4.2148199524     3.8666666222
          8
Energy: -28.460089544367804 Kcal/mole
 H      0.3693220334     5.8565562582     3.9003483191
 F      0.2659536934     6.7512204334     4.0729171457
 H     -1.2093037856     7.1534898861     3.4649972465
 F     -2.0794066214     7.1603263994     3.1755783162
 H     -2.4857513557     5.4986586727     2.7409767221
 F     -2.4145064142     4.5885780330     2.6539917372
 H     -0.8837687200     4.2278368711     3.1808615008
 F     -0.0385188190     4.2294756903     3.5364440076
          8
Energy: -28.699656009124027 Kcal/mole
 H     -1.1474453664     4.7463112068     5.0945337180
 F     -0.8041808448     5.5903160711     4.9910240220
 H     -1.5115865733     6.3291799277     3.6379604547
 F     -2.0485839046     6.4593999805     2.9061369759
 H     -2.9653887129     5.1021011321     2.7508457523
 F     -3.4264897237     4.3224116633     2.8935313859
 H     -2.6066340741     3.5737801475     4.1782288185
 F     -2.0443983058     3.3884085513     4.8785268352
          8
Energy: -28.71984184939373 Kcal/mole
 H     -0.2899872182     4.7114505429     4.6653412741
 F      0.1316893647     5.2523172811     4.0566204588
 H     -0.8889289759     5.5083627072     2.7589920947
 F     -1.6252641093     5.4915327356     2.2127171425
 H     -2.8804834459     4.7497197629     3.0782703454
 F     -3.3073944476     4.2746884521     3.7362834536
 H     -2.2496949989     3.7906209996     4.9442268670
 F     -1.4850020356     3.7912417815     5.4503229908
          8
Energy: -28.737390350071564 Kcal/mole
 H     -0.3706569268     4.1167436461     4.3511048668
 F      0.0846433848     4.6385843345     3.7500450343
 H     -0.9634966490     5.2693217532     2.6451155810
 F     -1.7316719123     5.4943326760     2.1977165986
 H     -3.0254775449     4.9426248515     3.0629421086
 F     -3.5666274781     4.5481198530     3.6893697229
 H     -2.5281537433     3.7533318386     4.7289205711
 F     -1.7632980569     3.4850413976     5.1577620549
          8
Energy: -28.554739140965694 Kcal/mole
 H     -0.9265094786     3.7563535084     3.4619797951
 F     -0.6423639212     4.6128589421     3.2990419410
 H     -1.9823738594     5.6015601595     3.2832322578
 F     -2.8158385409     5.9786917185     3.3464573474
 H     -3.7764355251     4.6721878249     3.7297916728
 F     -4.0087861332     3.8081134244     3.9304845360
 H     -2.7356528367     2.6193921224     3.7740148751
 F     -1.8694140772     2.3531078990     3.6339715822
          8
Energy: -28.6000809051275 Kcal/mole
 H     -0.5723217840     3.9465237873     4.6302815139
 F     -0.1893729282     4.7590539553     4.4457987239
 H     -1.3110812627     5.8834136357     4.9174891455
 F     -2.0623201829     6.2520953452     5.2924596534
 H     -3.1468340622     5.0455797080     5.5639465544
 F     -3.5645645456     4.2303807659     5.6068525926
 H     -2.3732626053     3.0936407915     5.4728485013
 F     -1.5540360663     2.7277940306     5.2833411789
          8
Energy: -28.735505252122266 Kcal/mole
 H     -0.9263537810     3.9954783648     5.2386558606
 F     -0.5659719924     4.7368201779     4.8368769629
 H     -1.8000273337     5.7475289246     4.4547173537
 F     -2.6468840057     6.0725625546     4.3202706488
 H     -3.7085054411     5.0341646391     5.0454012931
 F     -4.0705278133     4.3236191461     5.4981196431
 H     -2.8133423737     3.3264144921     5.8193243498
 F     -1.9923706660     2.9395050125     5.9504560005
          8
Energy: -28.688012641835854 Kcal/mole
 H     -0.5612565012     4.4685121204     5.3396058128
 F     -0.4009158748     4.8462088855     4.5195295741
 H     -1.8739947122     5.5700268065     3.9765806389
 F     -2.7141338346     5.9362103943     3.9455188459
 H     -3.4871334205     5.4881265645     5.3669378612
 F     -3.6530865423     5.0959812034     6.1790773672
 H     -2.2071174556     4.3955533252     6.6945936772
 F     -1.3389069855     4.1117569844     6.7755826673
          8
Energy: -28.709529780989584 Kcal/mole
 H     -0.7301866029     4.4506053388     5.5430925644
 F     -0.3174589570     5.1099565430     5.0574992368
 H     -1.5712479592     6.1907057587     4.7905904843
 F     -2.3996151423     6.5836189414     4.8083680221
 H     -3.5157984527     5.7556278001     5.8065223821
 F     -3.8619441403     5.1537517608     6.4055360683
 H     -2.6662907837     4.0090492746     6.4434427732
 F     -1.9008097722     3.5172214545     6.3292796600
          8
Energy: -28.708821053513276 Kcal/mole
 H     -0.5668060134     4.7484824336     5.4351078601
 F     -0.1581604616     5.4959693722     5.0957539302
 H     -1.2345899551     6.7834835049     5.2241569658
 F     -2.0307392054     7.2226885485     5.3430447314
 H     -3.1817227657     6.1576023092     5.8526238328
 F     -3.6045078920     5.3688023378     6.0524646245
 H     -2.4804188851     4.1107366949     6.0569724107
 F     -1.7027277848     3.6283649241     5.9986369386
          8
Energy: -28.744757702922527 Kcal/mole
 H     -0.7270547180     4.2245543503     4.9499396950
 F     -0.0974017505     4.6266491179     5.4816782946
 H     -0.9739444578     5.7253719215     6.4208633955
 F     -1.6843019856     6.1844598937     6.7751505906
 H     -3.1107217036     5.6658720461     6.0794765550
 F     -3.7095208939     5.2159142276     5.5504524619
 H     -2.8313868610     4.1014216311     4.6817999893
 F     -2.1154759793     3.6833097578     4.2899542658
          8
Energy: -28.7496169300708 Kcal/mole
 H     -0.5254500674     3.5575389208     5.4869333209
 F      0.0700516065     4.0115592831     6.0162085490
 H     -0.6068775590     5.4363865256     6.4875891787
 F     -1.1889137975     6.1401832289     6.5700089421
 H     -2.5414461809     5.8332619051     5.6099014902
 F     -3.1216251956     5.4505521613     5.0117254602
 H     -2.4313454242     3.9076801668     4.5997364737
 F     -1.8871668510     3.1696208340     4.6049424114
          8
Energy: -28.825142358672906 Kcal/mole
 H     -1.0308519361     3.4692396890     5.9237021846
 F     -0.3508819747     3.9322622117     6.3288441291
 H     -0.6814697092     5.5342156039     6.0815051304
 F     -1.0446669174     6.3307738355     5.8086099645
 H     -2.4028037114     5.9962553767     4.8856076343
 F     -3.0761040428     5.5582236376     4.4432459506
 H     -2.7776795907     3.9522128989     4.7500384211
 F     -2.4425276099     3.1719004856     5.0959787157
          8
Energy: -28.79578939458594 Kcal/mole
 H     -1.3259628533     3.5574848629     6.0987585146
 F     -0.6903507712     3.9225140323     6.6497938915
 H     -1.0063415942     5.5436249684     6.7147977301
 F     -1.4064904471     6.3587491423     6.5869600334
 H     -2.7981788846     6.1350538660     5.6253581771
 F     -3.4705076411     5.7723215417     5.1181222319
 H     -3.0333657487     4.1535738807     4.9696608334
 F     -2.6348364161     3.3365895651     5.0904912898
          8
Energy: -28.827038891239255 Kcal/mole
 H     -1.3096599723     3.5732709561     6.2117957103
 F     -0.4788637362     3.9553251681     6.1432304621
 H     -0.7049234668     5.5634398949     5.8332447213
 F     -1.0647512430     6.3851277036     5.6428710980
 H     -2.7349593577     6.1728608106     5.4349340894
 F     -3.5662765654     5.7910140059     5.3717382202
 H     -3.3761868297     4.1794623967     5.9270489816
 F     -2.9804843609     3.4022342416     6.2102890759
          8
Energy: -28.854665914165707 Kcal/mole
 H     -1.2559221841     3.4890067461     5.6552460970
 F     -0.4141208843     3.8337217201     5.7711389716
 H     -0.5665699896     5.5248678198     5.8196592592
 F     -0.9250767656     6.3688682620     5.8246737498
 H     -2.5992491992     6.1984115161     5.6754271295
 F     -3.4181115651     5.7987666107     5.5722894771
 H     -3.2334992094     4.1245463249     5.4444825908
 F     -2.8837932629     3.2768587914     5.4399442414
          8
Energy: -28.78072734114224 Kcal/mole
 H     -1.0324759600     3.5302246133     5.0858818577
 F     -0.2172553069     3.8259689692     5.3839415207
 H     -0.3596598228     5.5128503859     5.5680027772
 F     -0.6972411259     6.3629945185     5.6326774832
 H     -2.3082218332     6.2761653257     5.1911312367
 F     -3.1492192475     5.9600831218     5.0075436840
 H     -2.9909292714     4.3321291018     4.6915479222
 F     -2.6459730986     3.4849988418     4.6262443125
          8
Energy: -28.807121528188475 Kcal/mole
 H     -0.9238831766     3.7109885988     4.7691746264
 F     -0.2071628038     3.8733760466     5.3176554593
 H     -0.4654220688     5.2701345325     6.1150835465
 F     -0.8040793682     6.0619062481     6.4301990554
 H     -2.2455897960     6.2333088737     5.6131479887
 F     -2.9442904677     6.1376090332     5.0270183854
 H     -2.7621360922     4.6626746294     4.2481894358
 F     -2.3825189195     3.8731587338     3.9771830652
          8
Energy: -28.687078892893084 Kcal/mole
 H     -0.8324766303     3.4175822664     4.9804640828
 F     -0.0959951084     3.6307678834     5.4834907825
 H     -0.4032881207     5.0954624182     6.1876572539
 F     -0.7814545660     5.9141000906     6.3541249713
 H     -2.2989156965     6.0652234532     5.6688881537
 F     -3.0439555484     5.9119086667     5.1567366183
 H     -2.7324424316     4.4220802033     4.5065274082
 F     -2.3591028693     3.6294697616     4.2358333763
          8
Energy: -28.87979851251947 Kcal/mole
 H     -0.8110489970     3.6470033222     4.4264536191
 F     -0.0628818470     3.7646918939     4.9434490889
 H     -0.3494269278     5.0916971580     5.9340361786
 F     -0.7410591941     5.8315804820     6.3083166013
 H     -2.2375511665     6.0108332794     5.5648755283
 F     -2.9838309731     5.8984793865     5.0439800944
 H     -2.7078485986     4.5322953711     4.0966264685
 F     -2.3171757436     3.7790797474     3.7488766380
          8
Energy: -28.814691139930375 Kcal/mole
 H     -0.7446600816     3.8437420497     4.4333293550
 F      0.0111543036     3.9984657759     4.9290048372
 H     -0.3033169972     5.2494443851     5.9564218093
 F     -0.7399419452     5.9283300272     6.3915791829
 H     -2.2839183883     6.1493338849     5.7274169207
 F     -2.9956196391     6.0073556821     5.1668702950
 H     -2.7083361303     4.6575629085     4.1997907504
 F     -2.2897903759     3.9287956586     3.8329028291
          8
Energy: -28.875867767995373 Kcal/mole
 H     -0.7352395208     3.7424531122     4.3882525985
 F      0.0388841462     3.9076402193     4.8512156292
 H     -0.1917828643     5.3007236164     5.7477278934
 F     -0.5988076995     6.0359579900     6.1146750277
 H     -2.1603051091     6.0896700283     5.5806398063
 F     -2.9531491621     5.9130611383     5.1550853354
 H     -2.7008935376     4.5338201535     4.1889999112
 F     -2.2944175420     3.8249860890     3.7728022010
          8
Energy: -28.8346503618493 Kcal/mole
 H     -0.6333047728     3.6743983716     4.3842667905
 F      0.1592498141     3.7699121348     4.8355132286
 H     -0.0755724667     5.0553057755     5.8872133986
 F     -0.4150218025     5.7608131450     6.3646256943
 H     -1.9998164920     6.0608284840     5.7902534575
 F     -2.7822286759     5.9948793917     5.3165754110
 H     -2.5789537742     4.6821252214     4.2603607592
 F     -2.2007424605     3.9703269122     3.8231098368
          8
Energy: -28.89545862321549 Kcal/mole
 H     -0.6591532142     3.6944061684     4.3770873312
 F      0.1070628457     3.7625183784     4.8762493054
 H     -0.0834231595     5.0681035042     5.9018686895
 F     -0.4365340064     5.8067641885     6.3148845769
 H     -1.9671029807     6.0692291687     5.7360751171
 F     -2.7502227030     5.9798916832     5.2674267262
 H     -2.5364929123     4.6875075116     4.2179398920
 F     -2.1691446393     3.9854005682     3.7564314021
          8
Energy: -28.90339601326258 Kcal/mole
 H     -0.6826896822     3.6369445328     4.4422633002
 F      0.0795133481     3.7196662366     4.9453464547
 H     -0.0752242114     5.0694220951     5.9582018324
 F     -0.4251888735     5.8111462542     6.3683956975
 H     -1.9365689585     6.0990055513     5.7041295336
 F     -2.7039819124     6.0123329657     5.2097064141
 H     -2.5129914263     4.6809346618     4.2205859447
 F     -2.1937923757     3.9322318026     3.7981584424
          8
Energy: -28.91222870444841 Kcal/mole
 H     -0.6813063281     3.6387076478     4.4942370566
 F      0.0762837444     3.7122826727     5.0056400267
 H     -0.0906735470     5.0455122509     6.0087144852
 F     -0.4464948123     5.7816740352     6.4238603083
 H     -1.9431202521     6.1116515559     5.7346097322
 F     -2.6835768992     6.0351897643     5.1991038514
 H     -2.5233794624     4.6742974820     4.2327704481
 F     -2.1858137821     3.9244899122     3.8269046825
          8
Energy: -28.910921889589446 Kcal/mole
 H     -0.7060855834     3.6380774944     4.4878063956
 F      0.0655907333     3.7186404306     4.9765949752
 H     -0.1092691080     5.0426613569     5.9927504481
 F     -0.4522411276     5.7871346444     6.4038693091
 H     -1.9524893008     6.0855437194     5.7376752111
 F     -2.6971621448     6.0111446256     5.2077543394
 H     -2.5351994323     4.6739344105     4.2206616579
 F     -2.2055501215     3.9157918329     3.8238743550
          8
Energy: -28.927930971926088 Kcal/mole
 H     -0.6933512193     3.6376322620     4.4763903998
 F      0.0662723458     3.7101741564     4.9849164196
 H     -0.1001828287     5.0495943083     5.9917734400
 F     -0.4434100622     5.7939764635     6.4028443257
 H     -1.9431318817     6.0806952972     5.7249347371
 F     -2.6976585342     6.0114018232     5.2084301921
 H     -2.5367240187     4.6737600146     4.2225336071
 F     -2.2023713566     3.9232594680     3.8152913856
