          8
Energy: -2.293430048234761 Kcal/mole
 H     -4.6664399290     2.5109777753    -3.2943607121
 F     -4.0534063822     3.1929446884    -3.2943607121
 H      4.7015961467    -1.2399024103     1.0647541062
 F      4.6327291617    -0.3254920329     1.0647541062
 H      2.3597604650     4.1206741697    -0.2117343921
 F      2.0546948518     4.9854423304    -0.2117343921
 H      3.6318186300    -4.7831933900     1.2866145339
 F      3.3631045416    -3.9064484221     1.2866145339
