          8
Energy: -28.930963658246867 Kcal/mole
 H     -3.0722493882     4.6745407683     4.0619130592
 F     -3.1829259229     4.0445079561     3.4048754954
 H     -1.6675114465     3.4594887419     2.9971503570
 F     -0.7604773563     3.3272909308     2.9706569993
 H     -0.0648214854     4.3759575921     4.0779283731
 F      0.0455617013     5.0174055779     4.7238765394
 H     -1.4691682179     5.5779135502     5.1503335932
 F     -2.3772547393     5.6995659864     5.1886553149
