          8
Energy: -28.931015382311017 Kcal/mole
 H     -0.9270809360     6.2103618810     2.8294304770
 F     -1.4344229793     5.8170938609     2.1745768173
 H     -1.6965723715     4.2301111139     2.6303437134
 F     -1.6837864803     3.4411342739     3.0975064977
 H     -0.7645039279     3.6746860257     4.4765529755
 F     -0.2423943861     4.0627180601     5.1228669601
 H     -0.0073877436     5.6625850986     4.6840271294
 F     -0.0356453894     6.4556708878     4.2245650131
