          8
Energy: -28.929683700385056 Kcal/mole
 H     -1.1496857252     6.2765044778     2.9592797629
 F     -1.4891270899     5.8329448237     2.2320085664
 H     -1.4954578765     4.1951831752     2.5756120339
 F     -1.3884392908     3.3929208843     3.0066703118
 H     -0.7247711359     3.7258430213     4.5029828982
 F     -0.3786833299     4.1695625374     5.2270168903
 H     -0.3858866759     5.8065419843     4.8877720390
 F     -0.4993659964     6.6094436790     4.4595661160
