          8
Energy: -28.91736916674654 Kcal/mole
 H     -1.1289956459     6.2720794685     2.9447877359
 F     -1.4653177918     5.8234075251     2.2192052793
 H     -1.4858753151     4.1928437574     2.5718955360
 F     -1.3663092175     3.3872525224     2.9933403253
 H     -0.7296252845     3.7119208104     4.5084308280
 F     -0.4116457941     4.1613537197     5.2417712018
 H     -0.3862497708     5.7964635664     4.8955135844
 F     -0.4925410603     6.6000921722     4.4668269557
          8
Energy: -28.915183218026982 Kcal/mole
 H     -1.1016383662     6.2606753292     2.9384927320
 F     -1.4667690323     5.8240124883     2.2195392147
 H     -1.5264046493     4.1792330900     2.5804954349
 F     -1.4248042962     3.3867150726     3.0304749460
 H     -0.7702627819     3.7176230615     4.5239384401
 F     -0.4094900688     4.1610512284     5.2409485588
 H     -0.3728304432     5.7920753437     4.8778639809
 F     -0.4531872599     6.5907418016     4.4345089640
          8
Energy: -28.918667482761805 Kcal/mole
 H     -1.1329656423     6.2507556944     2.9376424359
 F     -1.4820391815     5.8108308858     2.2127266981
 H     -1.4878902187     4.1811879768     2.5654729668
 F     -1.4011305952     3.3774381307     2.9983100638
 H     -0.7656656962     3.7103136067     4.5167922480
 F     -0.4178074997     4.1640550700     5.2337318268
 H     -0.3892419583     5.8069874634     4.8759388347
 F     -0.4728652580     6.6021935391     4.4270029364
          8
Energy: -28.913337788433807 Kcal/mole
 H     -1.1249182690     6.2707921878     2.9178761496
 F     -1.4701574544     5.8158230410     2.2004488151
 H     -1.4547248938     4.1577672410     2.5368850757
 F     -1.3435504155     3.3653152354     2.9847121117
 H     -0.7101336756     3.7359148016     4.4780734710
 F     -0.3853102897     4.1766713903     5.2136768950
 H     -0.3711050584     5.8229106662     4.8600329019
 F     -0.4668792081     6.6211174401     4.4189181115
          8
Energy: -28.913973696360216 Kcal/mole
 H     -1.2468551597     6.2531310605     2.9517634569
 F     -1.6121096572     5.7982355661     2.2442691169
 H     -1.5012431109     4.1650865481     2.5649162745
 F     -1.3410827316     3.3649269631     2.9832251213
 H     -0.7123394391     3.7242796620     4.4873050101
 F     -0.3980731225     4.1912834633     5.2112063375
 H     -0.4303134128     5.8111537151     4.8477500442
 F     -0.5483050790     6.6134190541     4.4195710015
          8
Energy: -28.920318036724666 Kcal/mole
 H     -1.1928582388     6.2481100688     2.9295716029
 F     -1.5590399143     5.7851858703     2.2277873291
 H     -1.5672012526     4.1520814592     2.6029376648
 F     -1.4457422417     3.3539893248     3.0378924367
 H     -0.7445440688     3.7218704300     4.5253721522
 F     -0.3898393612     4.1822139670     5.2347080377
 H     -0.3784400571     5.8190360661     4.8470296078
 F     -0.4953374709     6.6136847481     4.4045847336
          8
Energy: -28.918246618378816 Kcal/mole
 H     -1.0885062767     6.2165863978     2.8883790287
 F     -1.4345554995     5.7649354153     2.1692473819
 H     -1.5236569833     4.1399018540     2.5720590374
 F     -1.4480521646     3.3546354247     3.0395304765
 H     -0.8123102520     3.7316684825     4.5347225776
 F     -0.4589429288     4.1868645822     5.2480367059
 H     -0.3503618932     5.8002143691     4.8296616990
 F     -0.4156541128     6.5878485304     4.3646258358
          8
Energy: -28.90863789979244 Kcal/mole
 H     -1.1071097550     6.2326351858     2.8757380978
 F     -1.4848017368     5.7765742984     2.1755622386
 H     -1.5487744821     4.1318451337     2.5622387863
 F     -1.4763180500     3.3487113982     3.0337688678
 H     -0.7678626896     3.7109494701     4.5193822143
 F     -0.4104919645     4.1654019479     5.2311743962
 H     -0.3462384925     5.7989484433     4.8269090124
 F     -0.4158728497     6.5879156848     4.3647718595
          8
Energy: -28.90681221975953 Kcal/mole
 H     -1.0977827428     6.2144553453     2.8570860390
 F     -1.4561924854     5.7544090869     2.1494216436
 H     -1.5642617300     4.1545341212     2.5729154062
 F     -1.5346440048     3.3700516082     3.0468341515
 H     -0.8601374531     3.7290646291     4.5286384565
 F     -0.4843780619     4.1728239437     5.2377023116
 H     -0.3605414184     5.7857075842     4.8240780102
 F     -0.4066601767     6.5745545676     4.3588012143
          8
Energy: -28.91681040282998 Kcal/mole
 H     -1.1144076079     6.2057021013     2.8612555098
 F     -1.4785977929     5.7616136856     2.1463849004
 H     -1.5166146466     4.1178820258     2.5207555278
 F     -1.4150107711     3.3361842579     2.9892790086
 H     -0.7903641185     3.7030320521     4.5005863208
 F     -0.4616795466     4.1512082070     5.2299652253
 H     -0.3781339203     5.7776329592     4.8251651800
 F     -0.4536891944     6.5625786642     4.3571474016
          8
Energy: -28.909416852450136 Kcal/mole
 H     -1.1210126509     6.2050164644     2.8650035459
 F     -1.4782474106     5.7616500571     2.1461860758
 H     -1.5063773045     4.1566830282     2.5410002761
 F     -1.4389252781     3.3602201902     2.9904289933
 H     -0.8152176705     3.7008893494     4.5073151635
 F     -0.4623723188     4.1502793676     5.2245583365
 H     -0.3799078476     5.7602967283     4.8052690441
 F     -0.4490038121     6.5508301853     4.3457349309
          8
Energy: -28.919136526804806 Kcal/mole
 H     -1.0794830410     6.2086136346     2.8557501298
 F     -1.4618633439     5.7558109941     2.1560044098
 H     -1.5183353705     4.1375350581     2.5588302310
 F     -1.4472164750     3.3409472125     3.0074714094
 H     -0.7784755197     3.6894575062     4.5055810065
 F     -0.4159135899     4.1360832221     5.2196981656
 H     -0.3017495023     5.7450961096     4.8021511663
 F     -0.3669242316     6.5310208741     4.3342157871
          8
Energy: -28.911310814619156 Kcal/mole
 H     -1.0795939096     6.2021881554     2.8444176310
 F     -1.4797509727     5.7662889329     2.1438784154
 H     -1.5177914452     4.1369916890     2.5434996175
 F     -1.4264158466     3.3482835470     3.0022794848
 H     -0.7544419462     3.6759204690     4.4959346114
 F     -0.3635260676     4.1047042214     5.2060178949
 H     -0.2420799586     5.7284794008     4.7868681112
 F     -0.3133909416     6.5142280125     4.3195321903
          8
Energy: -28.913652033057105 Kcal/mole
 H     -1.0192769362     6.1819523161     2.8369305472
 F     -1.4162064190     5.7562893886     2.1283071932
 H     -1.5434242316     4.1339971271     2.5367529337
 F     -1.4583546589     3.3473561918     3.0002701466
 H     -0.7260023784     3.6672709938     4.4853027069
 F     -0.3316460008     4.1006827869     5.1906581244
 H     -0.2513401521     5.7151267751     4.7841337317
 F     -0.3245806181     6.5055031839     4.3249714876
          8
Energy: -28.914135845157602 Kcal/mole
 H     -1.0454252467     6.1864992318     2.8362652131
 F     -1.4364955000     5.7486648934     2.1318121280
 H     -1.5158574579     4.1149012929     2.5504383801
 F     -1.4503453033     3.3248539119     3.0113313105
 H     -0.7127912675     3.6570542167     4.4787374754
 F     -0.3171672769     4.0943572915     5.1809743861
 H     -0.2303305258     5.7131044829     4.7767277013
 F     -0.3256951302     6.5056104619     4.3253643603
          8
Energy: -28.921536336628776 Kcal/mole
 H     -1.0563955947     6.1981517726     2.8566987686
 F     -1.4330392749     5.7568623939     2.1465634136
 H     -1.4778429478     4.1333996876     2.5433252499
 F     -1.3924513884     3.3366604764     2.9891995719
 H     -0.6893370119     3.6579719481     4.4718808449
 F     -0.3031928435     4.1081604947     5.1712462384
 H     -0.2401942514     5.7221870331     4.7708664813
 F     -0.3219109111     6.5191509097     4.3247051125
          8
Energy: -28.920431028366636 Kcal/mole
 H     -1.0459129029     6.2013481806     2.8490198594
 F     -1.4335953575     5.7566928319     2.1469707620
 H     -1.4734400007     4.1274860184     2.5514441458
 F     -1.3817621834     3.3342078289     3.0022144775
 H     -0.6785478312     3.6739297241     4.4806110234
 F     -0.3141948530     4.1239598849     5.1916727378
 H     -0.2401960889     5.7490520321     4.7850913738
 F     -0.3320016792     6.5323330634     4.3171901454
          8
Energy: -28.92286724350774 Kcal/mole
 H     -1.0335279441     6.2025752697     2.8341764939
 F     -1.4187794644     5.7530080837     2.1339196757
 H     -1.4630292111     4.1301782141     2.5269387680
 F     -1.3666807572     3.3370195187     2.9769446117
 H     -0.6542826977     3.6735460234     4.4401047220
 F     -0.2629320959     4.1125182704     5.1436934320
 H     -0.2289501895     5.7397195353     4.7660278284
 F     -0.3267256933     6.5383961076     4.3262043594
          8
Energy: -28.92133701317232 Kcal/mole
 H     -1.0314023020     6.2046234671     2.8221777893
 F     -1.4181754034     5.7502972342     2.1258422077
 H     -1.4330276441     4.1220613726     2.5045210409
 F     -1.3286326873     3.3305076933     2.9555570325
 H     -0.6264562231     3.6713763635     4.4324409272
 F     -0.2499642069     4.1091097404     5.1448539061
 H     -0.2093173956     5.7442740326     4.7663653481
 F     -0.3141500275     6.5333530138     4.3111143395
          8
Energy: -28.9228839573465 Kcal/mole
 H     -1.0336476575     6.1961744863     2.8288461022
 F     -1.4180562925     5.7507454331     2.1254884691
 H     -1.4489303142     4.1266164743     2.5143019862
 F     -1.3505490300     3.3322990961     2.9618173777
 H     -0.6399177105     3.6590772227     4.4475259421
 F     -0.2492501061     4.1097621814     5.1440536809
 H     -0.2058311135     5.7353948601     4.7481258740
 F     -0.2883496113     6.5257281755     4.2904655763
          8
Energy: -28.92003559081988 Kcal/mole
 H     -0.9419245175     6.1785287563     2.7958011463
 F     -1.2970313578     5.7318652148     2.0779712133
 H     -1.3639299929     4.1164341625     2.4988864573
 F     -1.3026275369     3.3229105029     2.9543545797
 H     -0.6062131303     3.6646825086     4.4495421303
 F     -0.2374209731     4.1142725516     5.1585908860
 H     -0.1870015376     5.7436799552     4.7548621584
 F     -0.2789765509     6.5259276239     4.2852685237
          8
Energy: -28.916138384924523 Kcal/mole
 H     -0.9278568601     6.1733232004     2.7821221897
 F     -1.2996471724     5.7287666991     2.0714672237
 H     -1.3728753256     4.0875721442     2.4746773973
 F     -1.2979498793     3.3049408334     2.9466555840
 H     -0.6130609551     3.6589730138     4.4405190404
 F     -0.2348925826     4.1148225421     5.1405753879
 H     -0.1632851155     5.7443736158     4.7404273343
 F     -0.2578942919     6.5298061955     4.2767099995
          8
Energy: -28.92590155789364 Kcal/mole
 H     -0.9138319739     6.1740703311     2.7741239324
 F     -1.3003911602     5.7287270655     2.0718915127
 H     -1.3957334942     4.1001138727     2.4942534038
 F     -1.3252858161     3.3115983103     2.9570377301
 H     -0.6482434876     3.6588788127     4.4510055322
 F     -0.2717825611     4.1077329210     5.1564813718
 H     -0.1551400066     5.7255202565     4.7332426493
 F     -0.2176440040     6.5095917596     4.2618467136
          8
Energy: -28.918940274391588 Kcal/mole
 H     -0.9311352715     6.1744722687     2.7831088696
 F     -1.2994732603     5.7287057436     2.0714148826
 H     -1.3883431092     4.1058557934     2.4939908422
 F     -1.3199774457     3.3140138136     2.9513762542
 H     -0.6481031476     3.6690247568     4.4396202905
 F     -0.2938523952     4.1115060795     5.1604570845
 H     -0.1781339219     5.7368078188     4.7500183476
 F     -0.2443977399     6.5159995229     4.2711045822
          8
Energy: -28.92841332773466 Kcal/mole
 H     -0.9277552953     6.1721961593     2.7827728226
 F     -1.2996525602     5.7288264860     2.0714327091
 H     -1.3756719477     4.1029833423     2.4714070395
 F     -1.3087647428     3.3170411336     2.9390685309
 H     -0.6496857060     3.6645950676     4.4431423903
 F     -0.2937684441     4.1117410643     5.1602702452
 H     -0.1931335093     5.7303261583     4.7411684336
 F     -0.2436020464     6.5163433600     4.2715740497
          8
Energy: -28.917852971554822 Kcal/mole
 H     -0.8927451035     6.1774144517     2.7616280541
 F     -1.2808904167     5.7345374391     2.0587111546
 H     -1.3733233617     4.1269875563     2.4754955195
 F     -1.3033384362     3.3304685307     2.9244371106
 H     -0.6412336508     3.6647915574     4.4287672248
 F     -0.2782620966     4.1118454987     5.1424081880
 H     -0.1526604053     5.7206885249     4.7245952100
 F     -0.2055237162     6.5019230715     4.2473457432
          8
Energy: -28.920211288867563 Kcal/mole
 H     -0.9237018659     6.1889589270     2.7777698170
 F     -1.2980137914     5.7403311183     2.0710077129
 H     -1.3856471600     4.1224245422     2.4801859096
 F     -1.3286916966     3.3329814767     2.9432460801
 H     -0.6457478727     3.6688922680     4.4224487161
 F     -0.2751574556     4.0989952462     5.1425620203
 H     -0.1772447023     5.7171729541     4.7497214792
 F     -0.2393654549     6.5064937831     4.2871172846
          8
Energy: -28.91738804671536 Kcal/mole
 H     -0.9046517425     6.1977246367     2.7894242305
 F     -1.2967958521     5.7572749546     2.0872019902
 H     -1.4586052552     4.1403524121     2.5097973487
 F     -1.4293930608     3.3567701875     2.9852282532
 H     -0.7393381244     3.6794010484     4.4715445397
 F     -0.3490301427     4.1030251896     5.1850508580
 H     -0.1769040961     5.7275269416     4.7697540453
 F     -0.1916044305     6.5045543781     4.2830290068
          8
Energy: -28.91990834610965 Kcal/mole
 H     -0.8973076559     6.1970996445     2.7930822665
 F     -1.2928442219     5.7567921105     2.0926758842
 H     -1.4579496374     4.1503714508     2.5266979302
 F     -1.4294278398     3.3562387007     2.9843317164
 H     -0.7153559264     3.6721687043     4.4540420662
 F     -0.3242396854     4.0984514094     5.1655195018
 H     -0.1488569477     5.7195610697     4.7507847124
 F     -0.1838675196     6.5111911249     4.2892816079
          8
Energy: -28.925824664873204 Kcal/mole
 H     -0.8918699914     6.1802001899     2.8003585374
 F     -1.2931326775     5.7576885876     2.0922898948
 H     -1.4599169232     4.1418969872     2.5192503593
 F     -1.4292029394     3.3528227746     2.9854129254
 H     -0.7193131842     3.6704569793     4.4720127591
 F     -0.3201871704     4.1067425188     5.1728995924
 H     -0.1486328554     5.7248110130     4.7482891441
 F     -0.1782121365     6.5086625203     4.2733250606
          8
Energy: -28.92333136475699 Kcal/mole
 H     -0.8813405147     6.1738278771     2.7951880494
 F     -1.2564738588     5.7368823532     2.0815757013
 H     -1.4519330804     4.1200219657     2.5077617771
 F     -1.4237511575     3.3381917708     2.9861301765
 H     -0.7096889441     3.6670265047     4.4687539442
 F     -0.3206977141     4.1069244975     5.1730724650
 H     -0.1500130720     5.7204645604     4.7489096780
 F     -0.1833147797     6.5061665406     4.2772610858
          8
Energy: -28.917405359770697 Kcal/mole
 H     -0.9284789936     6.2029253943     2.8125382196
 F     -1.3324843824     5.7623140897     2.1171747721
 H     -1.4657014056     4.1307464579     2.5268363856
 F     -1.4230207796     3.3376228613     2.9851183126
 H     -0.7246382717     3.6627704087     4.4738006081
 F     -0.3336131385     4.1041947254     5.1760348410
 H     -0.1677476808     5.7249311516     4.7446293250
 F     -0.1962338161     6.5186092524     4.2862052719
          8
Energy: -28.920777258739236 Kcal/mole
 H     -0.9432802392     6.2028879338     2.8362320639
 F     -1.4008866403     5.7868330354     2.1591916639
 H     -1.5337256458     4.1526769165     2.5532326287
 F     -1.4757508442     3.3548065195     3.0014856287
 H     -0.7446052379     3.6684271043     4.4817331126
 F     -0.3325539371     4.1038946507     5.1756140400
 H     -0.1160545970     5.7082545829     4.7438899366
 F     -0.1276820314     6.4959843114     4.2745971946
          8
Energy: -28.92194906647535 Kcal/mole
 H     -0.9593166170     6.2103370955     2.8422222170
 F     -1.4000359476     5.7864378746     2.1588739001
 H     -1.5468480770     4.1743991091     2.5599563775
 F     -1.4821798127     3.3725337303     3.0000915042
 H     -0.7510432874     3.6778176083     4.4760495182
 F     -0.3478185103     4.1097135540     5.1773088648
 H     -0.1532364907     5.7111815988     4.7491409605
 F     -0.1750237378     6.5007952478     4.2833893087
          8
Energy: -28.923225686360553 Kcal/mole
 H     -0.9698556210     6.2027054163     2.8272996336
 F     -1.4197983324     5.7778156318     2.1506097287
 H     -1.5629583376     4.1607725123     2.5582616595
 F     -1.5175269768     3.3708463026     3.0217717184
 H     -0.7726682564     3.6744224598     4.4802577844
 F     -0.3600140820     4.1003697179     5.1796678685
 H     -0.1479509952     5.7039598468     4.7405634508
 F     -0.1740835551     6.4933948902     4.2747325786
          8
Energy: -28.92849823735537 Kcal/mole
 H     -0.9687214910     6.2014100057     2.8273566032
 F     -1.4198584954     5.7778843503     2.1506067066
 H     -1.6020525138     4.1651779860     2.5729935220
 F     -1.5730792450     3.3740003882     3.0356894896
 H     -0.8022388844     3.6783465903     4.4963071516
 F     -0.3682663025     4.1025681270     5.1837610671
 H     -0.1569576121     5.7039456126     4.7409527293
 F     -0.1736057749     6.4933956453     4.2747119282
          8
Energy: -28.924556411522587 Kcal/mole
 H     -0.9863004188     6.2038059908     2.8372545465
 F     -1.4189259739     5.7777572488     2.1500816436
 H     -1.6018082530     4.1698996948     2.5733610550
 F     -1.5742710892     3.3743722629     3.0286267024
 H     -0.8225281536     3.6818930609     4.4870761439
 F     -0.3830948766     4.0961446837     5.1771362776
 H     -0.1774892956     5.7020420394     4.7486433939
 F     -0.1989607922     6.4938929279     4.2866908582
          8
Energy: -28.927552046763367 Kcal/mole
 H     -0.9817873842     6.1970185719     2.8385692473
 F     -1.4191653800     5.7781173057     2.1500119017
 H     -1.6085171505     4.1638275326     2.5633666224
 F     -1.5739151977     3.3746943771     3.0291568840
 H     -0.7906622832     3.6654220292     4.4871305738
 F     -0.3605374774     4.0921426044     5.1754554986
 H     -0.1686387752     5.7048581304     4.7572400249
 F     -0.2024274046     6.4930339961     4.2897722364
          8
Energy: -28.926770366070002 Kcal/mole
 H     -0.9726578298     6.2013203326     2.8323541649
 F     -1.4111729651     5.7787669899     2.1467579654
 H     -1.6039883063     4.1670065859     2.5684802507
 F     -1.5741554424     3.3745257356     3.0288856178
 H     -0.7975648228     3.6743768619     4.4784517385
 F     -0.3615876053     4.0846209992     5.1730830174
 H     -0.1729815469     5.7046551592     4.7571904091
 F     -0.2021970306     6.4930447633     4.2897748684
          8
Energy: -28.924100271080192 Kcal/mole
 H     -0.9721500839     6.1897569845     2.8390192389
 F     -1.4111998998     5.7793803988     2.1464043986
 H     -1.6102671751     4.1709135416     2.5731419817
 F     -1.5765180740     3.3823193034     3.0399065108
 H     -0.7976992815     3.6744029768     4.4950733201
 F     -0.3550287187     4.0947820983     5.1793343573
 H     -0.1481553718     5.7114095492     4.7532915597
 F     -0.1878076087     6.4982216492     4.2839905695
          8
Energy: -28.92153741631924 Kcal/mole
 H     -0.9617986320     6.1861181661     2.8375663705
 F     -1.4195984916     5.7794388247     2.1549828944
 H     -1.6151006623     4.1762168108     2.5826104969
 F     -1.5762616687     3.3820379772     3.0394042279
 H     -0.7688362414     3.6531810944     4.4870654077
 F     -0.3253429703     4.0761827402     5.1691741425
 H     -0.1541191426     5.6882660840     4.7488395174
 F     -0.1919011803     6.4821812761     4.2914991787
          8
Energy: -28.922056848202118 Kcal/mole
 H     -0.9681638231     6.1968887571     2.8352936447
 F     -1.4192608329     5.7788674697     2.1551034573
 H     -1.5979942602     4.1745528272     2.5786218576
 F     -1.5771691238     3.3821262477     3.0396158160
 H     -0.7619325107     3.6592408062     4.4711324553
 F     -0.2983149294     4.0732648009     5.1453222432
 H     -0.1449116422     5.6873212288     4.7463327862
 F     -0.1923896169     6.4822313985     4.2916321550
          8
Energy: -28.918863546565973 Kcal/mole
 H     -0.9967024310     6.1979464883     2.8527042233
 F     -1.4177469257     5.7788113596     2.1541798663
 H     -1.6192695804     4.1811513058     2.5815908634
 F     -1.5961584368     3.3936686984     3.0508733137
 H     -0.7374573463     3.6535840080     4.4626108344
 F     -0.2538705853     4.0576019223     5.1287957709
 H     -0.1577401464     5.6919641840     4.7504414596
 F     -0.2406421794     6.4917210679     4.3095274322
          8
Energy: -28.92287110556478 Kcal/mole
 H     -1.0068461840     6.1980735991     2.8586381176
 F     -1.4172088231     5.7788046166     2.1538650869
 H     -1.5801863331     4.1609211514     2.5512053960
 F     -1.5423193416     3.3681100138     3.0104499834
 H     -0.7061420231     3.6416015505     4.4481985473
 F     -0.2555317908     4.0582375640     5.1295603094
 H     -0.1649776321     5.6891848468     4.7542210805
 F     -0.2530776010     6.4912659139     4.3185682860
          8
Energy: -28.921648013584843 Kcal/mole
 H     -0.9892068677     6.1944352292     2.8502368038
 F     -1.4181445480     5.7789976237     2.1543107572
 H     -1.5349904581     4.1385287544     2.5320106320
 F     -1.4637842835     3.3477418336     2.9907858782
 H     -0.6881015480     3.6338158059     4.4487550788
 F     -0.2591037105     4.0496696420     5.1443953900
 H     -0.1450514998     5.6818268432     4.7592673438
 F     -0.2195698906     6.4777350067     4.3099721127
          8
Energy: -28.924502016766155 Kcal/mole
 H     -0.9801903830     6.1965875925     2.8427318636
 F     -1.3882515590     5.7784266025     2.1359670774
 H     -1.5172848487     4.1521939740     2.5373660158
 F     -1.4668296672     3.3592728350     2.9952080649
 H     -0.6743495606     3.6394922909     4.4439687111
 F     -0.2431809462     4.0560091282     5.1378680916
 H     -0.1355359674     5.6758174285     4.7467104947
 F     -0.2200746676     6.4780537922     4.3106382245
          8
Energy: -28.92418832749817 Kcal/mole
 H     -0.9724078370     6.1809098517     2.8450452742
 F     -1.3794776518     5.7630509524     2.1375305350
 H     -1.5298236949     4.1510362840     2.5399185205
 F     -1.4718997517     3.3559703215     2.9931336263
 H     -0.6833957242     3.6403351999     4.4491669064
 F     -0.2427010681     4.0559644138     5.1375923393
 H     -0.1459504573     5.6787310632     4.7538862825
 F     -0.2195222030     6.4778992306     4.3102575656
          8
Energy: -28.92271838034671 Kcal/mole
 H     -0.9875230922     6.1909700517     2.8475502855
 F     -1.3786758224     5.7625172820     2.1373976500
 H     -1.5193602207     4.1542532225     2.5443870410
 F     -1.4724548149     3.3557996704     2.9928965816
 H     -0.6840314738     3.6406228781     4.4358446737
 F     -0.2550592217     4.0573572128     5.1309736554
 H     -0.1879987370     5.6825671364     4.7610313376
 F     -0.2725890668     6.4902679668     4.3351759106
          8
Energy: -28.92769398942903 Kcal/mole
 H     -0.9724486977     6.1872576538     2.8346899632
 F     -1.3911397463     5.7696181078     2.1338590168
 H     -1.5106327699     4.1469261913     2.5305958582
 F     -1.4517293621     3.3481275578     2.9770710888
 H     -0.6738770997     3.6335599572     4.4339312171
 F     -0.2555978878     4.0577318845     5.1310751599
 H     -0.1471195149     5.6850838749     4.7436498180
 F     -0.2086589883     6.4844339358     4.2985190805
          8
Energy: -28.927555824890447 Kcal/mole
 H     -0.9885529038     6.1835610819     2.8463990780
 F     -1.4038097405     5.7685986115     2.1419440349
 H     -1.5133749406     4.1372654083     2.5263046956
 F     -1.4432865785     3.3403592242     2.9745425291
 H     -0.6735366140     3.6345521508     4.4331245590
 F     -0.2556159498     4.0576792509     5.1311179512
 H     -0.1525873804     5.6862017386     4.7509366662
 F     -0.2265101629     6.4806048917     4.2988879382
          8
Energy: -28.92940160080275 Kcal/mole
 H     -0.9915613950     6.1898250539     2.8444437298
 F     -1.4036501470     5.7682663222     2.1420477616
 H     -1.5205585083     4.1499960649     2.5349292240
 F     -1.4559660092     3.3524260560     2.9828118983
 H     -0.6784670420     3.6374615866     4.4343387526
 F     -0.2553544020     4.0575249121     5.1310535411
 H     -0.1463762867     5.6832726947     4.7477735470
 F     -0.2266063273     6.4818859505     4.3042997504
          8
Energy: -28.924218541716982 Kcal/mole
 H     -0.9837705597     6.1977272572     2.8349706611
 F     -1.4040634328     5.7678471286     2.1425502860
 H     -1.5236695057     4.1507182366     2.5366794883
 F     -1.4558009780     3.3523877464     2.9827190509
 H     -0.6777384539     3.6378831388     4.4336430224
 F     -0.2553930519     4.0575025497     5.1310904479
 H     -0.1583448181     5.6812565901     4.7461207359
 F     -0.2311756991     6.4872501665     4.3148910784
          8
Energy: -28.927661607802065 Kcal/mole
 H     -0.9723872878     6.2010751190     2.8361317382
 F     -1.3820469152     5.7729438187     2.1362949148
 H     -1.5148301425     4.1475844651     2.5298839585
 F     -1.4562698858     3.3525539858     2.9830795380
 H     -0.6834679764     3.6437852100     4.4336126831
 F     -0.2550891140     4.0571894584     5.1310920574
 H     -0.1575068522     5.6881246400     4.7585683653
 F     -0.2312201513     6.4868858324     4.3142307604
          8
Energy: -28.928948610417535 Kcal/mole
 H     -0.9734429403     6.1958510830     2.8399133995
 F     -1.3819909152     5.7732209418     2.1360943064
 H     -1.5176982522     4.1484769188     2.5318350810
 F     -1.4561177392     3.3525066432     2.9829760355
 H     -0.6797164189     3.6344371526     4.4369341702
 F     -0.2552881254     4.0576853513     5.1309158601
 H     -0.1622892113     5.6852987666     4.7542228772
 F     -0.2309664582     6.4870357384     4.3144612785
          8
Energy: -28.927293903674922 Kcal/mole
 H     -0.9722614438     6.1977918918     2.8380557096
 F     -1.3820535909     5.7731179864     2.1361928525
 H     -1.5123960164     4.1525436005     2.5383886139
 F     -1.4563990106     3.3522909151     2.9826283857
 H     -0.6915508749     3.6316090490     4.4464916462
 F     -0.2749098941     4.0533395328     5.1460934559
 H     -0.1637727702     5.6902301652     4.7633143673
 F     -0.2308877588     6.4867741391     4.3139789960
          8
Energy: -28.92782773016637 Kcal/mole
 H     -0.9766265741     6.2011485252     2.8385504327
 F     -1.3818220308     5.7729399247     2.1361666086
 H     -1.5145821656     4.1508691406     2.5356655879
 F     -1.4562830404     3.3523797413     2.9827728359
 H     -0.6680227221     3.6376335727     4.4352465070
 F     -0.2430245349     4.0530031301     5.1336258249
 H     -0.1466405832     5.6788356851     4.7525669881
 F     -0.2237666502     6.4800438584     4.3132424692
          8
Energy: -28.927415096051305 Kcal/mole
 H     -0.9666686733     6.1924957067     2.8379503249
 F     -1.3823502744     5.7733989367     2.1361984429
 H     -1.5246130023     4.1494074313     2.5344857036
 F     -1.4557509277     3.3524572816     2.9828354261
 H     -0.6693851545     3.6330796435     4.4388107308
 F     -0.2429522610     4.0532447055     5.1334367511
 H     -0.1444814211     5.6717485522     4.7462913463
 F     -0.2170976668     6.4750660783     4.3100610938
          8
Energy: -28.923747594245157 Kcal/mole
 H     -0.9779899265     6.1955175890     2.8427315675
 F     -1.3817497081     5.7732386329     2.1359448091
 H     -1.5222185726     4.1516364401     2.5381080253
 F     -1.4558779467     3.3523390379     2.9826432703
 H     -0.6445757839     3.6241717619     4.4228389977
 F     -0.2173300907     4.0414084698     5.1187295403
 H     -0.1381433766     5.6747828528     4.7507404666
 F     -0.2174338854     6.4749051156     4.3098250783
          8
Energy: -28.92716938245087 Kcal/mole
 H     -0.9666444096     6.1880211274     2.8405879955
 F     -1.3823515616     5.7736363028     2.1360585206
 H     -1.5178984429     4.1510318541     2.5364022149
 F     -1.4561071196     3.3523711097     2.9827337596
 H     -0.6478865250     3.6212484908     4.4266501057
 F     -0.2171544636     4.0415635426     5.1185273698
 H     -0.1358023675     5.6731223795     4.7472821251
 F     -0.2175580705     6.4749931999     4.3100085353
          8
Energy: -28.926957743637814 Kcal/mole
 H     -0.9709145603     6.1908819362     2.8414047041
 F     -1.3821250399     5.7734845435     2.1360151961
 H     -1.4992247325     4.1458067769     2.5256598185
 F     -1.4390305210     3.3449587278     2.9682748420
 H     -0.6423631528     3.6131541837     4.4209317365
 F     -0.2114090518     4.0306614265     5.1143690192
 H     -0.1217697767     5.6636521086     4.7376683847
 F     -0.1997335966     6.4657403978     4.3001012250
          8
Energy: -28.92454250165204 Kcal/mole
 H     -0.9584089944     6.1962819104     2.8306951023
 F     -1.3827884313     5.7731980874     2.1365833157
 H     -1.4965193129     4.1394908903     2.5188827883
 F     -1.4265163990     3.3421134035     2.9662950540
 H     -0.6366136636     3.6307662684     4.4216844015
 F     -0.2095513210     4.0530723222     5.1146233255
 H     -0.1108715700     5.6714448138     4.7386203301
 F     -0.1829485829     6.4729909211     4.2990549289
          8
Energy: -28.927084262564676 Kcal/mole
 H     -0.9555970918     6.1895756211     2.8467697602
 F     -1.3687314783     5.7727357026     2.1421752236
 H     -1.4945831168     4.1383296746     2.5165228832
 F     -1.4266191097     3.3421750033     2.9664202415
 H     -0.6410391229     3.6271198784     4.4167305630
 F     -0.2133419087     4.0399742941     5.1149535392
 H     -0.1060888237     5.6708496490     4.7367186502
 F     -0.1832022965     6.4730224933     4.2991558086
          8
Energy: -28.928809852560335 Kcal/mole
 H     -0.9740309289     6.1916769863     2.8475459616
 F     -1.3982025668     5.7771395796     2.1481704115
 H     -1.5002616632     4.1430128618     2.5258331033
 F     -1.4263178760     3.3419265710     2.9659263559
 H     -0.6395306487     3.6178453392     4.4213733519
 F     -0.2134219298     4.0404662869     5.1147072500
 H     -0.1064074872     5.6712958811     4.7375915968
 F     -0.1831853922     6.4729988217     4.2991095008
          8
Energy: -28.930065030190235 Kcal/mole
 H     -0.9724845899     6.1925716450     2.8460737852
 F     -1.3982845965     5.7770921200     2.1482485070
 H     -1.5110593889     4.1539740917     2.5313563655
 F     -1.4370795427     3.3531310999     2.9718861429
 H     -0.6422980433     3.6261723275     4.4180652117
 F     -0.2132751259     4.0400245594     5.1148827392
 H     -0.1066825578     5.6712903027     4.7376294694
 F     -0.1831708003     6.4729991176     4.2991074918
          8
Energy: -28.927655582793506 Kcal/mole
 H     -0.9660816049     6.1916679217     2.8426645524
 F     -1.3986242601     5.7771400605     2.1484293590
 H     -1.5124392659     4.1529457853     2.5297254449
 F     -1.4370063434     3.3531856492     2.9719726595
 H     -0.6371604867     3.6271841041     4.4121616931
 F     -0.1993544098     4.0334355029     5.1079882807
 H     -0.0942304916     5.6634069988     4.7296658489
 F     -0.1799142177     6.4637703685     4.2903871498
          8
Energy: -28.927419259477432 Kcal/mole
 H     -0.9701851268     6.1993834272     2.8377884541
 F     -1.3969284704     5.7822143415     2.1415492188
 H     -1.5115905717     4.1551677929     2.5320434204
 F     -1.4392930354     3.3553109947     2.9746393631
 H     -0.6340098574     3.6228657815     4.4127224227
 F     -0.1995215434     4.0336645799     5.1079585353
 H     -0.1054808545     5.6673901428     4.7289260682
 F     -0.1855329174     6.4694638312     4.2917093421
          8
Energy: -28.92777985418161 Kcal/mole
 H     -0.9610234092     6.1981303208     2.8382003164
 F     -1.3964595614     5.7833221803     2.1459441760
 H     -1.5111906705     4.1576341285     2.5364659382
 F     -1.4393142492     3.3551801612     2.9744047587
 H     -0.6393636106     3.6210801020     4.4171624228
 F     -0.1992375391     4.0337593061     5.1077230035
 H     -0.0924778264     5.6573631774     4.7203607302
 F     -0.1616368747     6.4603593028     4.2829784618
          8
Energy: -28.93023203842546 Kcal/mole
 H     -0.9616562226     6.1905242704     2.8367467869
 F     -1.4004316147     5.7757969296     2.1465537791
 H     -1.5156531215     4.1520552239     2.5318430535
 F     -1.4484539357     3.3499342363     2.9711324691
 H     -0.6422479744     3.6194777030     4.4199726773
 F     -0.1990845303     4.0338443096     5.1075739260
 H     -0.0863133062     5.6594349072     4.7231293704
 F     -0.1619638883     6.4602494023     4.2828315918
          8
Energy: -28.929684813577552 Kcal/mole
 H     -0.9655814931     6.1909706033     2.8389583610
 F     -1.4002233882     5.7757732526     2.1464364602
 H     -1.5187573433     4.1529498761     2.5339694336
 F     -1.4482892639     3.3498867770     2.9710196696
 H     -0.6446157036     3.6205073700     4.4208839303
 F     -0.1989589277     4.0337896882     5.1075255862
 H     -0.0853750781     5.6589726014     4.7221248094
 F     -0.1620136591     6.4602739265     4.2828848815
          8
Energy: -28.92892234495821 Kcal/mole
 H     -0.9598266826     6.1892534754     2.8384755275
 F     -1.4035252514     5.7798754070     2.1482363102
 H     -1.5175549699     4.1518756127     2.5318103979
 F     -1.4483530471     3.3499437642     2.9711342014
 H     -0.6409864347     3.6196075182     4.4190832142
 F     -0.1991514521     4.0338374232     5.1076211100
 H     -0.0852806076     5.6567122736     4.7179578825
 F     -0.1620186706     6.4603938317     4.2831059273
          8
Energy: -28.928769821475072 Kcal/mole
 H     -0.9679644657     6.1913920760     2.8423726597
 F     -1.4030935608     5.7797619592     2.1480295763
 H     -1.5171475913     4.1512083832     2.5305309766
 F     -1.4483746576     3.3499791592     2.9712020718
 H     -0.6394172887     3.6205856274     4.4174924041
 F     -0.1992346916     4.0337855368     5.1077054988
 H     -0.0916556368     5.6611220504     4.7270598447
 F     -0.1616804900     6.4601599032     4.2826230893
          8
Energy: -28.92979039795665 Kcal/mole
 H     -0.9621964828     6.1920495034     2.8383303027
 F     -1.4033995390     5.7797270842     2.1482440140
 H     -1.5243029770     4.1506544143     2.5307020238
 F     -1.4479950809     3.3500085460     2.9711929981
 H     -0.6412015523     3.6209460207     4.4184177455
 F     -0.1991400406     4.0337664188     5.1076564116
 H     -0.0862869841     5.6597235655     4.7236494363
 F     -0.1619652846     6.4602340896     4.2828040035
          8
Energy: -28.93016996060811 Kcal/mole
 H     -0.9646990526     6.1910404876     2.8405239617
 F     -1.4032667834     5.7797806102     2.1481276455
 H     -1.5186488613     4.1521299138     2.5324489027
 F     -1.4482950187     3.3499302741     2.9711003302
 H     -0.6397461967     3.6192159857     4.4185244345
 F     -0.1992172438     4.0338581931     5.1076507519
 H     -0.0883792960     5.6576764637     4.7202674855
 F     -0.1618542923     6.4603426836     4.2829834082
          8
Energy: -28.92972785409765 Kcal/mole
 H     -0.9601617606     6.1888277948     2.8389430007
 F     -1.4035074763     5.7798979884     2.1482115118
 H     -1.5237362519     4.1511013992     2.5314175318
 F     -1.4480251443     3.3499848345     2.9711550421
 H     -0.6389145117     3.6217266559     4.4164906272
 F     -0.1992613628     4.0337250079     5.1077586407
 H     -0.0857686076     5.6598956152     4.7238724499
 F     -0.1619927833     6.4602249628     4.2827921732
          8
Energy: -28.929825791246117 Kcal/mole
 H     -0.9619579472     6.1935736376     2.8372644525
 F     -1.4034121927     5.7796462324     2.1483005549
 H     -1.5183974265     4.1508885966     2.5301467591
 F     -1.4483083567     3.3499961231     2.9712224536
 H     -0.6415397527     3.6219405609     4.4083354516
 F     -0.1957697187     4.0332756284     5.0960719847
 H     -0.0872045314     5.6568019782     4.7184583909
 F     -0.1619166109     6.4603890731     4.2830793765
          8
Energy: -28.929980313678783 Kcal/mole
 H     -0.9657900432     6.1905050907     2.8415311144
 F     -1.4032089089     5.7798090117     2.1480742183
 H     -1.5211497562     4.1510533000     2.5308929212
 F     -1.4481623520     3.3499873860     2.9711828714
 H     -0.6402505513     3.6206861390     4.4082525821
 F     -0.1958381078     4.0333421726     5.0960763807
 H     -0.0886852272     5.6558025356     4.7168608463
 F     -0.1618380634     6.4604420912     4.2831641226
          8
Energy: -28.93016173164645 Kcal/mole
 H     -0.9656224202     6.1940742109     2.8392981097
 F     -1.4032178009     5.7796196781     2.1481926741
 H     -1.5203971432     4.1509336151     2.5305512383
 F     -1.4482022763     3.3499937350     2.9712009969
 H     -0.6395078172     3.6217685291     4.4071256087
 F     -0.1958775082     4.0332847543     5.0961361641
 H     -0.0870182366     5.6553445676     4.7157248051
 F     -0.1619264934     6.4604663853     4.2832243869
          8
Energy: -28.930194505960912 Kcal/mole
 H     -0.9623711778     6.1912141254     2.8389402868
 F     -1.4033902718     5.7797713991     2.1482116557
 H     -1.5190664833     4.1512346325     2.5308827214
 F     -1.4482728648     3.3499777667     2.9711834125
 H     -0.6379328811     3.6211203918     4.4065011802
 F     -0.1959610549     4.0333191365     5.0961692886
 H     -0.0857345118     5.6573909704     4.7192893777
 F     -0.1619945920     6.4603578284     4.2830352946
          8
Energy: -28.930406583289965 Kcal/mole
 H     -0.9642040864     6.1912349211     2.8400946052
 F     -1.4032930402     5.7797702959     2.1481504218
 H     -1.5213512694     4.1515592764     2.5318483488
 F     -1.4481516621     3.3499605451     2.9711321882
 H     -0.6369614581     3.6214127948     4.4057051535
 F     -0.1960125866     4.0333036252     5.0962115159
 H     -0.0862840333     5.6567961748     4.7182886602
 F     -0.1619654412     6.4603893809     4.2830883803
          8
Energy: -28.93074853752566 Kcal/mole
 H     -0.9631283653     6.1905151060     2.8367642076
 F     -1.4008080435     5.7772166270     2.1450201317
 H     -1.5200138838     4.1512514668     2.5310667980
 F     -1.4482226074     3.3499768737     2.9711736477
 H     -0.6388774731     3.6215942267     4.4068242513
 F     -0.1959109465     4.0332940006     5.0961521504
 H     -0.0863074007     5.6568372690     4.7183685933
 F     -0.1619642016     6.4603872010     4.2830841401
