          8
Energy: -28.931833291029392 Kcal/mole
 H     -0.9079632374     6.2252319922     2.8432405060
 F     -1.4343153857     5.8425834769     2.1971580578
 H     -1.6983382204     4.2477911296     2.6333400484
 F     -1.6829494382     3.4531042258     3.0906418200
 H     -0.7647684875     3.6813823613     4.4726753154
 F     -0.2413692758     4.0653106891     5.1203953970
 H      0.0280566465     5.6568410894     4.6806242278
 F      0.0159269737     6.4507635224     4.2218987746
