          8
Energy: -28.925152412883705 Kcal/mole
 H     -2.3836333309     2.9105166453     5.6211430213
 F     -2.8442271068     3.1201000282     4.8564096173
 H     -1.6995047252     3.5113314764     3.7004531103
 F     -0.9002336869     3.6755741899     3.2820285192
 H      0.3370315944     3.4706426366     4.3934855795
 F      0.7919375088     3.2920552936     5.1694083656
 H     -0.3512714264     2.8416459000     6.3018840285
 F     -1.1485352527     2.6455497872     6.7103025709
