          10
Energy: -37.88534961470509 Kcal/mole
 H     -2.7357172656     2.0398663854    -3.8268003275
 F     -2.9298615019     2.5309725123    -3.0771258730
 H     -1.6748604274     3.2192318661    -2.2347122379
 F     -0.8843454387     3.5232675353    -1.8832334129
 H      0.5362609979     3.0481087493    -2.6007614631
 F      1.2208962641     2.7047428851    -3.1050068751
 H      0.8417508852     1.7595718205    -4.4170904106
 F      0.4732336692     1.2654562993    -5.0960115498
 H     -1.1817599669     1.1691965741    -5.1976222431
 F     -2.0941013689     1.2115505895    -5.1155960067
