          10
Energy: -37.88437857313167 Kcal/mole
 H     -2.7555587568     2.0608366049    -3.8433970376
 F     -2.9549199761     2.5448014299    -3.0904547075
 H     -1.6966645861     3.2221467605    -2.2447937143
 F     -0.9042994765     3.5186004982    -1.8910116990
 H      0.5130633380     2.9884164250    -2.5715911093
 F      1.1976387629     2.6197278164    -3.0577126966
 H      0.8305035826     1.7459039095    -4.4214052588
 F      0.4660374016     1.2925314199    -5.1302823910
 H     -1.1908746786     1.2011619596    -5.2235221550
 F     -2.1026566028     1.2428476735    -5.1351761082
