          10
Energy: -37.574073859183244 Kcal/mole
 H      2.5178539319     2.3224151927    -3.8387377932
 F      3.2411698031     2.6064306398    -4.3256036641
 H      3.6224495598     1.5972605364    -5.6098598395
 F      3.7916952085     0.9244070615    -6.2094539619
 H      3.0351766612    -0.5298707528    -6.1479648639
 F      2.4906436540    -1.2585040143    -6.0319201561
 H      1.1739515209    -1.0388093810    -4.9449619221
 F      0.6000937421    -0.7178540775    -4.3057718543
 H      0.8947048335     0.7658046445    -3.5618913528
 F      1.1707164703     1.5619604730    -3.2001698119
          10
Energy: -37.633690842588095 Kcal/mole
 H      2.2019630695     2.9241615205    -4.0201089297
 F      2.7387428096     3.4275308276    -4.5672614232
 H      3.3639921566     2.5516500242    -5.8725869983
 F      3.6050531274     1.9572612364    -6.5279346750
 H      2.6026118504     0.6058548087    -6.8342124758
 F      2.0188907941    -0.1012324256    -6.8205606841
 H      1.0932550766    -0.3989525460    -5.4093125552
 F      0.6940810995    -0.3481763037    -4.5853156443
 H      0.9387992831     1.0004960047    -3.6622943822
 F      1.1954844166     1.7797376824    -3.2526797462
          10
Energy: -37.71917159293528 Kcal/mole
 H      2.0520461045     3.1714792614    -3.8178710140
 F      2.7582275462     3.5132414063    -4.2926292764
 H      3.1180045428     3.0775233333    -5.8837909709
 F      3.1428303726     2.7185907241    -6.7272600339
 H      2.2850175097     1.3072992068    -6.9521043498
 F      1.7538342472     0.5630942086    -6.8821596419
 H      0.6477145235     0.4843175891    -5.6150090089
 F      0.1119172684     0.5902410002    -4.8784015609
 H      0.4619938683     1.7092658394    -3.6332489944
 F      0.7886437926     2.3894438467    -3.1121475597
          10
Energy: -37.60526561456837 Kcal/mole
 H      1.7166459313     3.5549292028    -3.7135570149
 F      2.3483065068     3.9874129582    -4.2183854201
 H      2.3492480375     3.5982677224    -5.8000670019
 F      2.2843232378     3.2944041503    -6.6628188201
 H      1.3295183828     1.9597521867    -7.0390943475
 F      0.7921079178     1.2173989993    -7.0705703278
 H      0.0073508281     0.8869261396    -5.5981673804
 F     -0.2369469478     0.8199469354    -4.7168493998
 H      0.2279175412     1.8887616656    -3.5874654920
 F      0.5414262289     2.5888307110    -3.0849670995
          10
Energy: -37.57169313707553 Kcal/mole
 H      1.2155250467     4.2890624735    -4.0627691662
 F      1.8296127970     4.8333762520    -4.4720462672
 H      2.3732643061     4.1992758244    -5.9036530981
 F      2.5700698153     3.7682051754    -6.6887229594
 H      1.3437652527     2.7030871281    -7.1244880748
 F      0.6454709776     2.1090320787    -7.1437936085
 H      0.0837542963     1.3559470410    -5.7710514898
 F     -0.1993159056     1.0802303842    -4.9435609545
 H     -0.0756110183     2.3406988418    -3.8765382545
 F      0.1098955215     3.1452074780    -3.4774866563
          10
Energy: -37.65060945577767 Kcal/mole
 H      0.4998280262     5.1403623859    -4.2819088520
 F      0.8520403480     5.6096011364    -4.9866431816
 H      0.9329031303     4.9278744288    -6.5325289422
 F      0.9828691206     4.3617018898    -7.2521406818
 H      0.8908268099     2.7605145255    -6.9761655531
 F      0.8546871025     1.8814460501    -6.7176669322
 H      0.6736459950     1.6210085233    -5.0705969115
 F      0.5177136552     1.6144942102    -4.1669754923
 H      0.1053463793     3.1013516614    -3.4269213210
 F     -0.0871064462     3.9740793991    -3.2215017362
          10
Energy: -37.55195785041127 Kcal/mole
 H     -0.3626813868     4.9199132289    -4.4135931205
 F     -0.4123216671     5.3460685022    -5.2240352996
 H      0.1937565485     4.6911377910    -6.5954931895
 F      0.6106720647     4.2078046447    -7.2538696184
 H      1.3919090114     2.7917961387    -6.7184013518
 F      1.7614406119     2.0960963222    -6.2490004980
 H      0.8824474298     1.7092507677    -4.9024938521
 F      0.3130646480     1.6390434089    -4.1871176053
 H      0.0087636289     3.0704690625    -3.3680508172
 F     -0.1284380479     3.9515353991    -3.1540722890
          10
Energy: -37.61094962796773 Kcal/mole
 H     -0.5160618014     4.9408305519    -4.3821342672
 F     -0.6272065704     5.2719048941    -5.2300290839
 H      0.2169303000     4.6988931385    -6.5982922710
 F      0.6937928323     4.2429807333    -7.2351870849
 H      1.1912064798     2.8069535577    -6.6516871661
 F      1.3968493563     2.0172043863    -6.2334811717
 H      0.9349434219     1.6650854005    -4.6857207775
 F      0.6626072614     1.6595911492    -3.8101113733
 H      0.1182506944     3.1231635906    -3.1621809787
 F     -0.1690898440     3.9804567237    -3.0092990015
          10
Energy: -37.388448155429415 Kcal/mole
 H     -0.7791130893     4.8724745685    -3.8854095652
 F     -0.6034324904     5.6021936933    -4.4122257817
 H      0.0757925256     5.2695439925    -5.9434844817
 F      0.5237539143     4.8276249536    -6.6105130847
 H      1.5133387444     3.5682235242    -6.1202721976
 F      1.9225503377     2.8249031899    -5.7725514007
 H      1.4267036697     2.0405495970    -4.3503880133
 F      0.9904646123     1.8320054919    -3.5712257445
 H     -0.2363692264     2.8665810951    -3.2375566630
 F     -0.9262285832     3.4538280957    -3.0956974790
          10
Energy: -37.5272069999113 Kcal/mole
 H     -0.3488312367     4.0706845137    -2.4530792209
 F      0.2921824256     4.7230871885    -2.3870395752
 H      1.3526414968     4.6969474848    -3.5907849608
 F      1.9166502779     4.6296748479    -4.3106859867
 H      1.9861520796     3.2474712284    -5.2091171417
 F      1.9043288912     2.4378720181    -5.6318973262
 H      0.6495485419     1.5527927127    -5.0098406251
 F     -0.0720161418     1.2481693393    -4.5329360146
 H     -1.0291751464     2.1240855818    -3.3884494524
 F     -1.3248454356     2.7788816784    -2.8186160100
          10
Energy: -37.56265950123 Kcal/mole
 H     -1.4032267472     4.1085443999    -3.2620499726
 F     -1.0479876415     4.9477143376    -3.3644608779
 H      0.4168322793     4.9351905069    -4.1933499944
 F      1.2425717624     4.7737129860    -4.5579982034
 H      1.8847561717     3.2726936313    -5.0124492793
 F      2.0125078861     2.3828518876    -5.1934193614
 H      0.6310337202     1.5120086817    -5.0436301363
 F     -0.1839319055     1.1453257939    -4.8380487930
 H     -1.3231633451     1.9112057177    -3.8804603069
 F     -1.8335615080     2.4680524340    -3.3605521902
          10
Energy: -37.32039517875464 Kcal/mole
 H     -1.1299353720     4.3774250843    -4.5719351119
 F     -0.6368535200     5.0937881075    -4.2811030192
 H      0.9808220907     5.0077164850    -4.5197136800
 F      1.8700957895     4.7849313102    -4.5408809760
 H      2.1400689940     3.1714937179    -4.6228990805
 F      2.1105160783     2.2574363699    -4.6900912666
 H      0.6987603313     1.5874428169    -5.1854732694
 F     -0.1401080594     1.3303767689    -5.4521301089
 H     -1.4096241673     2.3114024219    -5.2715877043
 F     -1.9466793956     3.0361236505    -5.1065427931
          10
Energy: -37.49081953232093 Kcal/mole
 H     -0.8157222574     4.4678668344    -4.3567323191
 F     -0.2345891762     5.1760351403    -4.3158545450
 H      1.3207745786     4.9102941390    -4.8549494397
 F      2.1064274970     4.5416288292    -5.1511324596
 H      2.2709377498     2.8632001116    -5.1868533079
 F      2.2908267053     1.9484681806    -5.2481633705
 H      0.7963506438     1.3024566303    -4.8737638476
 F     -0.0507985889     1.0687464420    -4.6118349919
 H     -1.1830768015     2.3051403501    -4.4225425414
 F     -1.6560808216     3.0902535033    -4.3950919730
          10
Energy: -37.699353827360056 Kcal/mole
 H     -0.4450862773     4.4485813627    -3.9689574533
 F      0.1725292981     5.1238953313    -4.0271901321
 H      1.7652465263     4.6559398737    -4.2163909870
 F      2.5872059737     4.2703877664    -4.3453143723
 H      2.7059467356     2.6408573841    -4.1257729365
 F      2.6637566220     1.7464973874    -3.9277093341
 H      1.1458972268     1.2408979186    -3.4338853064
 F      0.2561291319     1.1407188316    -3.2359815729
 H     -0.8292634596     2.3066682480    -3.6177416624
 F     -1.2944279844     3.0423392388    -3.9063575979
          10
Energy: -37.457261610174925 Kcal/mole
 H     -0.3304733082     4.4241179063    -4.5415928732
 F      0.2825849875     4.9483458924    -4.9777505794
 H      1.8716611253     4.8250542000    -4.4612031604
 F      2.7270410434     4.6430899396    -4.1853350693
 H      2.9242557966     3.0072151634    -4.1636989912
 F      2.7616896726     2.1059136602    -4.2097082920
 H      1.3081465587     1.5386082648    -3.7015353773
 F      0.4647910204     1.3250693959    -3.4116361059
 H     -0.7343494938     2.5047931404    -3.5825483893
 F     -1.2137348564     3.2799769441    -3.6833885829
          10
Energy: -37.501625632650985 Kcal/mole
 H     -0.2302726667     4.2850611277    -5.8364656492
 F      0.4346424827     4.7565488590    -6.2565563100
 H      1.7632693729     4.7670043993    -5.2950083737
 F      2.4940505131     4.7132495692    -4.7436842011
 H      2.7064402001     3.1492863998    -4.1668222428
 F      2.6478359198     2.2837189546    -3.8697573739
 H      1.0918475583     1.6587852514    -3.7646414816
 F      0.2004854684     1.4752287889    -3.8772010203
 H     -0.8115972185     2.6177035796    -4.5165873730
 F     -1.2185302424     3.3100843694    -4.9591970836
          10
Energy: -37.74571138957086 Kcal/mole
 H     -0.4156843583     4.3329169639    -5.3203141044
 F      0.2309133009     4.9775944246    -5.2355117537
 H      1.7574854330     4.6966720201    -4.6181759390
 F      2.5431215173     4.3469062282    -4.2998540359
 H      2.6130534875     2.6779893974    -4.2063021039
 F      2.4828430864     1.7709042807    -4.1726741019
 H      0.9275175416     1.2441293460    -4.1890706053
 F      0.0283517836     1.0799231628    -4.2627338191
 H     -0.9861806009     2.2338496466    -4.9503952482
 F     -1.3354087561     2.9723401129    -5.3670012092
          10
Energy: -37.70892822823683 Kcal/mole
 H     -0.4847821738     4.3719700655    -5.2508516505
 F      0.1336014824     5.0119740049    -5.0297507433
 H      1.4014019485     4.5726450365    -4.0413140749
 F      2.0750416870     4.1593110530    -3.5762834085
 H      2.2439244697     2.4680825755    -3.6169339573
 F      2.1423843640     1.5636228261    -3.7288766595
 H      0.9702614806     1.0551090787    -4.7493760609
 F      0.2565696686     0.9881187828    -5.3212548048
 H     -0.8469103898     2.2267305224    -5.5058549595
 F     -1.3415649927     2.9965417288    -5.5658260383
          10
Energy: -37.740333734484494 Kcal/mole
 H     -0.7989912157     4.5505477304    -4.7549767673
 F     -0.2508104343     5.2337767641    -4.4837113652
 H      1.2029063561     4.7146069567    -3.9183186060
 F      1.9824287674     4.2800414252    -3.7076373084
 H      2.4230600237     2.8025738214    -4.3775564961
 F      2.4934881994     2.0088355950    -4.8313279143
 H      1.1170193499     1.5020886596    -5.5488026177
 F      0.2811345900     1.3500566276    -5.8938706246
 H     -0.9143496076     2.4521139605    -5.4795974788
 F     -1.4926891700     3.1105306464    -5.2095978152
          10
Energy: -37.597742469094555 Kcal/mole
 H     -0.5214738439     4.9118035479    -5.0825136003
 F     -0.0467036658     5.4909541765    -4.5533001958
 H      1.2340804419     4.8049055653    -3.6740853913
 F      1.8723518949     4.2314998525    -3.3505047354
 H      2.1520886556     2.7714601304    -4.0725855870
 F      2.1722744425     1.9490044657    -4.4776142447
 H      0.7328046623     1.5495971698    -5.2654322672
 F     -0.0828649328     1.4717124662    -5.6771434337
 H     -0.9497644838     2.8493811770    -5.9446712214
 F     -1.2370894890     3.7195663686    -5.9780039920
          10
Energy: -37.62033610465781 Kcal/mole
 H     -0.6431961710     4.6524434307    -4.9970151967
 F     -0.5122146649     5.1902417408    -4.2659161455
 H      0.4383441808     4.4269547065    -3.1686066136
 F      0.9644837307     3.8715291366    -2.6630686720
 H      1.0722125374     2.2767664020    -2.9448788734
 F      1.0090851024     1.3969168622    -3.1954157257
 H      0.0891045899     1.1881939119    -4.5466997455
 F     -0.3983529730     1.2025950796    -5.3232734578
 H     -0.7096956917     2.6777806963    -6.0187377831
 F     -0.7722525224     3.5665757301    -6.2355765041
          10
Energy: -37.669916107532885 Kcal/mole
 H     -1.1601477727     4.4612252547    -4.7576991508
 F     -1.0642757681     4.8893284644    -3.9524506173
 H     -0.1459142603     4.2516419839    -2.7209656598
 F      0.3100179791     3.7466372769    -2.1061607810
 H      0.5336847790     2.1607618391    -2.6189325550
 F      0.5681832349     1.3337874490    -3.0136631146
 H      0.2621127320     1.2407041818    -4.6252123042
 F      0.0617259378     1.3865576155    -5.5080831377
 H     -0.7311265386     2.7579503778    -6.0115558864
 F     -1.1311303451     3.5734979813    -6.1371268277
          10
Energy: -37.64036092506689 Kcal/mole
 H     -1.7300687515     4.3381042738    -4.5029855717
 F     -1.5054605355     4.8451853005    -3.7727055009
 H     -0.5959232404     4.0460622247    -2.5844080857
 F     -0.1059804340     3.4771146151    -2.0579637259
 H      0.6703031128     2.1804005752    -2.7050526346
 F      0.9643973079     1.4849672657    -3.2254083941
 H      0.4427638516     1.3635797731    -4.7888823079
 F      0.0232016565     1.4259601302    -5.6018800051
 H     -1.2833611619     2.4196019763    -5.7003889543
 F     -1.9217837173     3.0755570296    -5.6453561565
          10
Energy: -37.637156170011735 Kcal/mole
 H     -2.5079889316     3.5349113248    -3.8265145106
 F     -2.4481372138     3.6947346709    -2.9255354488
 H     -1.0398085744     3.4705853366    -2.1422027542
 F     -0.2022194585     3.2251046945    -1.8610040216
 H      0.3558360808     1.8684821487    -2.6601779218
 F      0.5024783785     1.1265141168    -3.1787032116
 H      0.1171748306     1.3059082560    -4.7864904840
 F     -0.2469922081     1.5456526006    -5.5932085371
 H     -1.5841460757     2.5073019735    -5.6252617074
 F     -2.2898964389     3.0602703473    -5.4328262572
          10
Energy: -37.605180456906794 Kcal/mole
 H     -3.1370706931     2.7313201760    -3.7476288973
 F     -3.1168382180     2.7207209792    -2.8309133994
 H     -1.7445011918     2.4063875603    -1.9867969977
 F     -0.8892100741     2.2407692232    -1.7005511762
 H      0.2691640308     2.0832897565    -2.8379604786
 F      0.8233539070     1.9688459570    -3.5595318181
 H      0.0755337191     1.7938385713    -5.0325993583
 F     -0.4974688322     1.8363563390    -5.7472666345
 H     -2.0732459615     2.4293810154    -5.6359756598
 F     -2.8876850627     2.7328212380    -5.3435684410
          10
Energy: -37.55130171539787 Kcal/mole
 H     -3.1259918131     2.5827982972    -3.1069197627
 F     -3.0364023202     2.7202164337    -2.2047119271
 H     -1.5209276409     2.5028059266    -1.5462741786
 F     -0.6411851159     2.3161366990    -1.3671186896
 H      0.4253654558     2.5694645351    -2.7090419290
 F      0.8184480465     2.6816099767    -3.5298942159
 H      0.0566898884     2.1677527502    -4.9010897623
 F     -0.5349728693     1.8811913622    -5.5403915315
 H     -2.1742328371     2.1920726443    -5.1934539878
 F     -2.9798369243     2.3463835424    -4.7834793526
          10
Energy: -37.70906641779115 Kcal/mole
 H     -3.3102476156     2.7497994533    -3.0043219969
 F     -3.2134231571     2.9761030507    -2.1209756854
 H     -1.6901840086     3.1300445192    -1.5196976411
 F     -0.7958126534     3.1666388561    -1.3205752327
 H      0.2638437597     2.9534588550    -2.5549143064
 F      0.6993594385     2.8198366250    -3.3507536075
 H     -0.0748305415     2.3258109588    -4.7867706836
 F     -0.7064769414     2.0515194965    -5.3923084769
 H     -2.2989308428     2.2341576627    -4.9977262144
 F     -3.1341754074     2.3815600667    -4.6491174817
          10
Energy: -37.736044827089756 Kcal/mole
 H     -3.4661014261     2.6933665508    -3.0131313551
 F     -3.4706792326     3.3234215134    -2.3468740566
 H     -2.0288729080     4.0570924206    -1.9020596724
 F     -1.1724940067     4.3537013845    -1.7623195566
 H      0.0260363384     3.9586395693    -2.8547092755
 F      0.5864972240     3.6220932946    -3.4977560862
 H     -0.0875353338     2.2954172819    -4.2767832399
 F     -0.5682288416     1.6238419957    -4.6752921940
 H     -2.2009986788     1.5455793675    -4.4595901011
 F     -3.0824086228     1.6425135430    -4.2259038235
          10
Energy: -37.72927416404346 Kcal/mole
 H     -3.6568635280     2.9153896946    -3.2173889113
 F     -3.7493475575     3.7619399927    -2.8772590874
 H     -2.3842160389     4.6651725728    -2.7413644590
 F     -1.5386325155     5.0198495490    -2.7323230275
 H     -0.1983763731     4.0680700638    -3.1566633961
 F      0.4158268420     3.4572915920    -3.4576502214
 H     -0.3001437520     2.2653930343    -4.4236400916
 F     -0.8786888384     1.7117316451    -4.8704439067
 H     -2.4227426357     1.4557971460    -4.3127056785
 F     -3.2494823230     1.4690921005    -3.9162038075
          10
Energy: -37.638779934904704 Kcal/mole
 H     -3.4480632706     3.0670453352    -3.4359998368
 F     -3.4256802951     3.8402104841    -2.9434517124
 H     -2.1789471676     4.9726767816    -3.0625199491
 F     -1.3763792597     5.3949223089    -3.1984701901
 H     -0.1197417858     4.3574110523    -3.5564834566
 F      0.4076617991     3.6259213571    -3.7227882505
 H     -0.2142645294     2.0938958423    -4.1595666112
 F     -0.6935845825     1.3270035679    -4.3112818916
 H     -2.3247326587     1.4618396012    -4.3708315506
 F     -3.2113825564     1.6902370966    -4.3200817419
          10
Energy: -37.72829815744379 Kcal/mole
 H     -3.4370450102     2.8691127781    -3.1495649587
 F     -3.3979397246     3.6272382070    -2.6351666590
 H     -2.0815589889     4.6725894302    -2.7043611520
 F     -1.2635577015     5.0538172113    -2.8669289002
 H     -0.3259383373     4.4349144112    -4.0741937701
 F      0.0648673608     3.9507206975    -4.7477784744
 H     -0.3678076559     2.3622585463    -4.8379401185
 F     -0.7447499406     1.5285263830    -4.7771602379
 H     -2.3537778459     1.4960968074    -4.4546336095
 F     -3.2353808936     1.6230350886    -4.2365699970
          10
Energy: -37.7527620532982 Kcal/mole
 H     -3.2920232264     2.7091104562    -2.9294396590
 F     -3.1676212991     3.3771444058    -2.3136931181
 H     -2.0837020406     4.5450299573    -2.6842912702
 F     -1.4234080744     5.0791652976    -3.0301240571
 H     -0.2559375593     4.2086947378    -3.8074246801
 F      0.3208600510     3.6180952814    -4.2066561905
 H     -0.2806192395     2.1657986793    -4.7615318237
 F     -0.7619482459     1.4184408628    -4.9866266521
 H     -2.3415969468     1.4120937682    -4.5135242896
 F     -3.1733904245     1.5491499200    -4.1526583564
          10
Energy: -37.803467537329794 Kcal/mole
 H     -3.3117192430     2.7000392830    -3.0514160433
 F     -3.3114986042     3.4878253284    -2.5820738461
 H     -2.1790478946     4.6514498116    -3.0078432004
 F     -1.5111939121     5.1802490606    -3.3473007268
 H     -0.3295631056     4.4399038371    -4.2173050363
 F      0.2272525129     3.9200757005    -4.7278185771
 H     -0.3774918866     2.4385655705    -5.1893985815
 F     -0.8285906570     1.6603254406    -5.3675591820
 H     -2.2606863854     1.4163376684    -4.5645504655
 F     -3.0439188885     1.4265636533    -4.0877577692
          10
Energy: -37.54789623667082 Kcal/mole
 H     -3.4782913632     2.8834847120    -3.5246509996
 F     -3.7240581759     3.7582367274    -3.4009716343
 H     -2.4943897276     4.7798896625    -3.6477404613
 F     -1.7572139534     5.3031277413    -3.8016326019
 H     -0.5614391216     4.7105868048    -4.7599818787
 F     -0.0210603260     4.2223058332    -5.3171725553
 H     -0.5684035628     2.6773076232    -5.6992288787
 F     -1.0117213021     1.8746229627    -5.7066933112
 H     -2.2066714624     1.4407145963    -4.5554516141
 F     -2.8158219186     1.4249298891    -3.8701957753
          10
Energy: -37.75879242073819 Kcal/mole
 H     -3.4314376545     2.8204602713    -3.3850424269
 F     -3.4860484382     3.6132254097    -2.9274070943
 H     -2.3123957905     4.7323368035    -3.3119963545
 F     -1.6294322358     5.2533084818    -3.6329921385
 H     -0.4621778784     4.6646852860    -4.6741045504
 F      0.0957272244     4.1810521900    -5.2179151100
 H     -0.2803542193     2.5827722675    -5.3354353991
 F     -0.6067469227     1.7265956479    -5.3717451669
 H     -2.1467058024     1.4939794363    -4.7469710826
 F     -2.9796951005     1.5114846284    -4.3639418442
          10
Energy: -37.67099493779972 Kcal/mole
 H     -3.4308541156     2.8187473961    -3.6377231980
 F     -3.4399730357     3.5493882786    -3.0836746929
 H     -2.3225760704     4.7401984979    -3.2481320402
 F     -1.6365191721     5.3191743634    -3.4352199324
 H     -0.6544045947     4.6756353889    -4.6065137762
 F     -0.2517140185     4.1555400445    -5.2454426709
 H     -0.6819735665     2.6452354942    -5.8879656901
 F     -1.0390685323     1.8288522482    -6.1045080211
 H     -2.4563100870     1.5392549580    -5.2713421748
 F     -3.2076928406     1.5923114121    -4.7483718409
          10
Energy: -37.73064508801531 Kcal/mole
 H     -3.5251811243     3.0380371476    -3.8612982223
 F     -3.5301192871     3.7745322970    -3.3150020486
 H     -2.1276148899     4.6637476178    -3.1331454903
 F     -1.2910670164     5.0274507630    -3.2269360952
 H     -0.3990594918     4.5833388926    -4.5334310152
 F     -0.0494014123     4.2256650770    -5.3019995997
 H     -0.5117679568     2.6752953041    -5.7031643309
 F     -0.9047861134     1.8502927669    -5.7792993572
 H     -2.4804024294     1.7354726854    -5.2677675799
 F     -3.3090918573     1.7661900761    -4.8763352435
          10
Energy: -37.78615408265952 Kcal/mole
 H     -3.1669857318     2.5042950780    -3.3670873124
 F     -3.0562304502     3.1594337331    -2.7350939500
 H     -1.7380238529     4.1838481382    -2.8452296180
 F     -0.9780174184     4.6499752805    -3.0597166963
 H     -0.3884738736     4.4695017369    -4.6133504359
 F     -0.1371435176     4.2190512189    -5.4589251459
 H     -0.6556175160     2.7392262526    -6.0458130657
 F     -1.0542735712     1.9272222416    -6.1961853891
 H     -2.3829059687     1.5614396013    -5.2544205587
 F     -3.1079985885     1.4821781181    -4.6986802326
          10
Energy: -37.7174379014551 Kcal/mole
 H     -3.3062027316     2.6931744215    -3.6967643996
 F     -3.4318779754     3.5211307775    -3.3231563086
 H     -2.0662236377     4.4479271649    -3.3285881486
 F     -1.2481805343     4.8598178923    -3.3737601498
 H     -0.2463217823     4.2925301374    -4.5804979339
 F      0.1496323256     3.8148845354    -5.2557490156
 H     -0.3099132367     2.2768587824    -5.6843888006
 F     -0.7064063139     1.4567490305    -5.7897559429
 H     -2.1182266654     1.2159887459    -4.9324701459
 F     -2.8929790324     1.2873197797    -4.4471252649
          10
Energy: -37.78536829593838 Kcal/mole
 H     -3.4683361328     2.7543418592    -3.8887529793
 F     -3.6134894858     3.6271101510    -3.6477239085
 H     -2.2314701706     4.4644106818    -3.3345308406
 F     -1.3901323933     4.8257658744    -3.2849105889
 H     -0.1221324166     4.0922714184    -4.0888202923
 F      0.4466951340     3.5579483142    -4.5703003417
 H     -0.1593084973     2.2064821386    -5.3429377227
 F     -0.6269068786     1.4857511266    -5.6635427165
 H     -2.0539467430     1.2671276254    -4.8767822483
 F     -2.8198546018     1.2886066447    -4.3729838723
          10
Energy: -37.772291491658905 Kcal/mole
 H     -3.4086842251     2.4854911125    -3.4710079471
 F     -3.4580341511     3.2734417879    -3.0045453890
 H     -2.2998170940     4.4629409757    -3.2627129186
 F     -1.5879630434     4.9973725756    -3.4830210566
 H     -0.4973957059     4.4289894052    -4.5598029195
 F      0.0088545991     3.9683234755    -5.1700377348
 H     -0.4380452750     2.4296132491    -5.6791374234
 F     -0.8198534009     1.6056756283    -5.8065672162
 H     -2.2326922618     1.2086979992    -4.9738128079
 F     -2.9906616385     1.1805264302    -4.4584704103
          10
Energy: -37.81462382330321 Kcal/mole
 H     -3.3739285509     2.5882663144    -3.5429559974
 F     -3.4617828817     3.3911215580    -3.1086818047
 H     -2.0463065541     4.2668986053    -3.0122597727
 F     -1.2087310934     4.6343375891    -3.0781759365
 H     -0.3813660975     4.2809456585    -4.4798172424
 F     -0.0805050002     3.9440848785    -5.2778751445
 H     -0.5013398975     2.4112190683    -5.7437813453
 F     -0.8661991276     1.5835932771    -5.8947856236
 H     -2.2140200201     1.2669677334    -4.9869098186
 F     -2.9216511537     1.2343638308    -4.4046004813
          10
Energy: -37.76580480792012 Kcal/mole
 H     -3.3217837034     2.6055292662    -3.5454227849
 F     -3.3312614952     3.3152078610    -2.9647718885
 H     -2.0214642128     4.2869876596    -2.9711805777
 F     -1.2345653284     4.7414490835    -3.0942413755
 H     -0.2170960444     4.2741280363    -4.3428775463
 F      0.2045379133     3.8291606026    -5.0248729926
 H     -0.3842167660     2.3608340717    -5.5924499373
 F     -0.8437102843     1.5941928453    -5.7974278305
 H     -2.3548125954     1.3523371686    -5.1168701395
 F     -3.1500638127     1.3995691510    -4.6627405971
          10
Energy: -37.77075249101418 Kcal/mole
 H     -3.3688024185     2.3716535005    -3.4144695477
 F     -3.3928024635     3.1436775782    -2.9202106871
 H     -2.0376578763     4.1305786259    -2.8976640282
 F     -1.2515050950     4.5833883738    -3.0311411299
 H     -0.2824217040     4.1693597599    -4.3239974313
 F      0.1369412219     3.7963649848    -5.0491861200
 H     -0.5522071987     2.4377324218    -5.7077352123
 F     -1.0941321984     1.7457356399    -5.9691673228
 H     -2.3163423342     1.1857287847    -4.9615376722
 F     -2.9943017766     1.0560890707    -4.3578377973
          10
Energy: -37.80493682760027 Kcal/mole
 H     -3.4700298483     2.4794025764    -3.4051706736
 F     -3.4752159260     3.2753785115    -2.9498856911
 H     -2.0406344051     4.1281821782    -2.9128202722
 F     -1.1873656266     4.4523747682    -3.0006869686
 H     -0.1325877524     3.8036277380    -4.0751994328
 F      0.3510943211     3.3503996651    -4.7088594092
 H     -0.5215054486     2.2518797725    -5.5694415030
 F     -1.1399561778     1.6717950949    -5.9185968589
 H     -2.4684992258     1.2564378391    -4.9885086133
 F     -3.1327515647     1.1637758831    -4.3631514417
          10
Energy: -37.77476833876449 Kcal/mole
 H     -3.3153192595     2.5796274631    -3.2357473763
 F     -3.3036735983     3.3051974986    -2.6751213850
 H     -1.9480771116     4.2002003514    -2.7521654020
 F     -1.1494579435     4.6229489471    -2.9083065216
 H     -0.3122903997     4.2940515858    -4.3393857964
 F      0.0207473990     3.9792009745    -5.1336426297
 H     -0.5864816479     2.5542171260    -5.6980619482
 F     -1.0725167885     1.7992685265    -5.8843720507
 H     -2.3668348924     1.3969442593    -4.8972568669
 F     -3.0482076780     1.3278206583    -4.2874683340
          10
Energy: -37.81326439709514 Kcal/mole
 H     -3.4656092867     2.6645829972    -3.2993631874
 F     -3.4578540732     3.4535915158    -2.8321433096
 H     -2.1176696842     4.3992512427    -2.9454201062
 F     -1.3059849333     4.7906956863    -3.1152085415
 H     -0.2838491253     4.1882798300    -4.2818536547
 F      0.1550645756     3.7404354696    -4.9509419836
 H     -0.6099319570     2.4140632278    -5.5824540230
 F     -1.1606048515     1.7124961249    -5.7956486840
 H     -2.4818875095     1.4369019006    -4.8642799028
 F     -3.1850947747     1.3739266779    -4.2791109841
          10
Energy: -37.7838737219036 Kcal/mole
 H     -3.4576912561     2.6940498006    -3.3210228353
 F     -3.4163159183     3.4379764631    -2.7864667557
 H     -2.0591793332     4.4094467725    -2.8645928027
 F     -1.2514433579     4.8039564194    -3.0457384147
 H     -0.1650450937     4.0767304257    -4.0994130512
 F      0.2886386193     3.5899586342    -4.7303752620
 H     -0.5805372298     2.4377843928    -5.5217252867
 F     -1.2088082024     1.8559363026    -5.8497761742
 H     -2.5095739851     1.4607779991    -4.9071982397
 F     -3.2181987882     1.3847935878    -4.3301659550
          10
Energy: -37.73616608641066 Kcal/mole
 H     -3.3707696943     2.6422074222    -3.3973880512
 F     -3.4685863025     3.4616971348    -2.9976912635
 H     -2.0330146449     4.3389832882    -2.8130478753
 F     -1.1854282450     4.6847085403    -2.8674569265
 H     -0.3429779726     4.2845699799    -4.2290180181
 F      0.0174586663     3.9047951403    -4.9818430313
 H     -0.5850918520     2.4410977856    -5.5166985891
 F     -1.0212624966     1.6641788439    -5.7335882542
 H     -2.3642379888     1.3032441202    -4.8175907553
 F     -3.0509940585     1.2518034720    -4.2121083356
          10
Energy: -37.73348112203993 Kcal/mole
 H     -3.5616536967     2.8362166801    -3.5487044908
 F     -3.6259815018     3.5766552895    -3.0115810421
 H     -2.1655143170     4.3625645268    -2.9495804192
 F     -1.3110427286     4.6846621412    -3.0333684341
 H     -0.3260998795     4.2577240942    -4.3473182840
 F      0.0964230576     3.9146242333    -5.0853195395
 H     -0.6651213648     2.6195676760    -5.7833025133
 F     -1.2381672693     1.9603067838    -6.0623768179
 H     -2.5622269949     1.6185618608    -5.1476167567
 F     -3.2678185028     1.5745020002    -4.5635890581
          10
Energy: -37.7949875691416 Kcal/mole
 H     -3.7499748714     2.9256114008    -3.7250373162
 F     -3.6694641039     3.5656827029    -3.0733351262
 H     -2.2168497629     4.3361203501    -2.8761415130
 F     -1.3658209000     4.6749219558    -2.9191804092
 H     -0.4028596687     4.2826783277    -4.2104064600
 F      0.0102287760     3.9404141503    -4.9541148503
 H     -0.7545624874     2.7413189815    -5.8703418797
 F     -1.2953486439     2.0994470780    -6.2397194541
 H     -2.7548216495     1.8772658788    -5.5022598620
 F     -3.5438807356     1.8879432752    -5.0351830462
          10
Energy: -37.784995461674896 Kcal/mole
 H     -3.6626248403     2.8057088300    -3.6901705585
 F     -3.6493920610     3.4954263403    -3.0860152394
 H     -2.2601317333     4.4076256801    -2.9556714513
 F     -1.4229184050     4.7805260511    -2.9858070810
 H     -0.4275453474     4.2173071717    -4.1665326212
 F      0.0052034141     3.8534638400    -4.8884990605
 H     -0.7331524356     2.6514315194    -5.7792273804
 F     -1.2574347793     2.0061310291    -6.1660145328
 H     -2.7436916011     1.6922875819    -5.4365545005
 F     -3.4743645665     1.6606167800    -4.8833791414
          10
Energy: -37.860143607411715 Kcal/mole
 H     -3.6552417090     2.8219186452    -3.7535028413
 F     -3.5652766150     3.4218569630    -3.0658479157
 H     -2.2020430858     4.3787394024    -2.9558177240
 F     -1.3844827721     4.7868780762    -3.0326744507
 H     -0.3297826167     4.2480320669    -4.1979251553
 F      0.1253635428     3.8479221912    -4.8861424617
 H     -0.6517827228     2.6997917657    -5.7931627253
 F     -1.2144967598     2.0841026204    -6.1741729469
 H     -2.7443821711     1.8530713201    -5.5384333395
 F     -3.5419818487     1.8314368114    -5.0864867692
          10
Energy: -37.791073030166615 Kcal/mole
 H     -3.6098454661     2.7122166121    -3.6824733560
 F     -3.5527187304     3.3870601824    -3.0642406395
 H     -2.2355027963     4.4158857734    -3.0750398891
 F     -1.4798274562     4.9056850136    -3.2480730788
 H     -0.4272586939     4.3758279678    -4.4357942084
 F      0.0439575969     3.9641944725    -5.1061687849
 H     -0.7225590852     2.7398325004    -5.8585491197
 F     -1.2361195195     2.0579359608    -6.1934547625
 H     -2.6944473382     1.7291936578    -5.4802630525
 F     -3.4497673693     1.6455818716    -4.9670479710
          10
Energy: -37.84417676614194 Kcal/mole
 H     -3.4745736220     2.5783626318    -3.5998607788
 F     -3.4627764499     3.2327643418    -2.9575927439
 H     -2.2464015555     4.3328819343    -3.0844294393
 F     -1.5029275897     4.8324619302    -3.2807844491
 H     -0.4189359934     4.3085376371    -4.4171431797
 F      0.0701050380     3.9078943555    -5.0813817140
 H     -0.6489261056     2.6671709240    -5.9074988362
 F     -1.1643081252     1.9882644398    -6.2456650077
 H     -2.5117158811     1.5670637462    -5.3966144659
 F     -3.2222016769     1.4712758523    -4.8248421219
          10
Energy: -37.81084232542162 Kcal/mole
 H     -3.4187926884     2.5040641656    -3.5229087546
 F     -3.3857802357     3.1449183831    -2.8678476507
 H     -2.1888693980     4.2608306959    -3.0532955716
 F     -1.4750517283     4.7998584657    -3.2552916057
 H     -0.3854146661     4.3225338566    -4.4255198693
 F      0.1058682368     3.9167541369    -5.0849688274
 H     -0.6612112088     2.6728019896    -5.9503302661
 F     -1.2103189284     2.0097230474    -6.2660770453
 H     -2.5768988946     1.5770861316    -5.4034865207
 F     -3.2756965972     1.4763208037    -4.8183223390
          10
Energy: -37.84165725798644 Kcal/mole
 H     -3.3726064815     2.4376192653    -3.4890955141
 F     -3.2832154725     3.0459217736    -2.8087527285
 H     -2.0849132983     4.1990185908    -2.9018209193
 F     -1.3938613176     4.7615342321    -3.1184134247
 H     -0.4061916816     4.2851126195    -4.3716327946
 F      0.0558788494     3.9016121294    -5.0646747835
 H     -0.6817737937     2.6597153190    -5.8858015711
 F     -1.2075701671     1.9948699174    -6.2356697830
 H     -2.6007761938     1.5704102742    -5.4016987713
 F     -3.3195083403     1.4834190642    -4.8388971803
          10
Energy: -37.858687059295505 Kcal/mole
 H     -3.3651498785     2.4845003444    -3.4737332548
 F     -3.2506858372     3.0611907165    -2.7700179730
 H     -2.0617113154     4.1987819818    -2.9065488832
 F     -1.3671220333     4.7535741051    -3.1315831676
 H     -0.4134173282     4.3494281301    -4.4377681636
 F      0.0041556665     4.0081195985    -5.1794084270
 H     -0.7688116915     2.7862393870    -6.0142331829
 F     -1.3118018475     2.1263610259    -6.3468158629
 H     -2.6428604497     1.7201488377    -5.4712482851
 F     -3.3178914592     1.5793463429    -4.8667676869
          10
Energy: -37.86717734027741 Kcal/mole
 H     -3.3719535099     2.5161349438    -3.5031567050
 F     -3.2990764063     3.1156035637    -2.8130731582
 H     -2.0624647010     4.2270989016    -2.8884716514
 F     -1.3272148893     4.7456517020    -3.0656712775
 H     -0.3877594674     4.3158053214    -4.3719368974
 F      0.0145322526     3.9776521962    -5.1234040198
 H     -0.7237225439     2.7614018025    -5.9843840842
 F     -1.2555874820     2.1003681050    -6.3322966281
 H     -2.5870066062     1.6567581372    -5.4367006350
 F     -3.2667291515     1.5403593374    -4.8322855618
          10
Energy: -37.86680513653528 Kcal/mole
 H     -3.3039547000     2.4420994794    -3.4176284550
 F     -3.2340361759     3.0484900246    -2.7333106146
 H     -2.0387483419     4.1909180270    -2.8550113405
 F     -1.3357489055     4.7394587952    -3.0689828759
 H     -0.4131366752     4.3439913570    -4.3901999854
 F      0.0034872150     3.9926778774    -5.1276905774
 H     -0.7262909203     2.7664305688    -5.9901102560
 F     -1.2554512356     2.1001013405    -6.3319928680
 H     -2.5522887039     1.6276517277    -5.4071634360
 F     -3.2080940834     1.4912368020    -4.7809052845
          10
Energy: -37.8645435304677 Kcal/mole
 H     -3.3164843656     2.4580576425    -3.4461349198
 F     -3.2454835155     3.0695500061    -2.7664842974
 H     -2.0755987883     4.2323130448    -2.8834145917
 F     -1.3780734694     4.7854011001    -3.1035078282
 H     -0.4164006367     4.3455971835    -4.3951024254
 F      0.0013030313     3.9947065023    -5.1321834084
 H     -0.7336398217     2.7734117791    -5.9925092217
 F     -1.2550613934     2.0997310035    -6.3318656084
 H     -2.5402357441     1.6436426076    -5.4097567498
 F     -3.2125794761     1.5052288516    -4.8017398601
          10
Energy: -37.86459110953936 Kcal/mole
 H     -3.3399309760     2.4365251308    -3.4707014950
 F     -3.2736992455     3.0478327913    -2.7904035440
 H     -2.0864538405     4.2132319840    -2.8897104100
 F     -1.3813310847     4.7597729153    -3.1018045158
 H     -0.4297953605     4.3377737639    -4.3828064783
 F     -0.0130848052     3.9995733369    -5.1263532383
 H     -0.7431802148     2.7795591744    -5.9902617208
 F     -1.2545552976     2.0994048983    -6.3319848331
 H     -2.5434322123     1.6261042542    -5.4201388607
 F     -3.2235292721     1.4690835543    -4.8254107808
          10
Energy: -37.87466112914737 Kcal/mole
 H     -3.3438045648     2.4298927957    -3.4642871349
 F     -3.2734937605     3.0481846213    -2.7907438110
 H     -2.0867751219     4.2039690393    -2.9023511583
 F     -1.3820354485     4.7560920694    -3.1008232023
 H     -0.4268832896     4.3661174253    -4.4077463765
 F     -0.0217399323     4.0266096780    -5.1570676358
 H     -0.7645795153     2.8059383443    -6.0171198263
 F     -1.2939663270     2.1389960209    -6.3574528116
 H     -2.5719773457     1.6286269376    -5.4364398346
 F     -3.2351252276     1.4608137592    -4.8257331752
          10
Energy: -37.87976045751529 Kcal/mole
 H     -3.3549182255     2.4195138816    -3.4823386968
 F     -3.2861524837     3.0433369089    -2.8137542942
 H     -2.0818077012     4.1958353992    -2.8994305429
 F     -1.3716775636     4.7443391523    -3.0885014835
 H     -0.4272680340     4.3586486287    -4.4046165694
 F     -0.0217195225     4.0270058804    -5.1572336648
 H     -0.7752079634     2.8191681894    -6.0007220738
 F     -1.2949896065     2.1467192518    -6.3450017129
 H     -2.5669344891     1.6054390899    -5.4275977154
 F     -3.2255855264     1.4298299855    -4.8142224195
          10
Energy: -37.883416504063035 Kcal/mole
 H     -3.3516516083     2.4198431889    -3.4829731319
 F     -3.2863257702     3.0433194399    -2.8137206389
 H     -2.0773230655     4.1797312638    -2.8960442447
 F     -1.3648592695     4.7259709226    -3.0828772573
 H     -0.4263533739     4.3549866189    -4.4025230625
 F     -0.0217680431     4.0272001416    -5.1573447205
 H     -0.7706551768     2.8165586130    -6.0025458781
 F     -1.2952311213     2.1468576838    -6.3449049643
 H     -2.5664590085     1.6047143375    -5.4272939098
 F     -3.2256107495     1.4298684320    -4.8142385357
