          10
Energy: -37.8780069482512 Kcal/mole
 H      2.6560746605     1.8477996171    -2.8719846729
 F      3.5715707894     1.8950722167    -2.8491561989
 H      4.4229626017     0.8019925498    -3.7752195149
 F      4.7414522370     0.1387342041    -4.3225235611
 H      3.6769678028    -0.8842724628    -5.0959926802
 F      2.9689906036    -1.3588612406    -5.4342570406
 H      1.4618872566    -1.0041414660    -4.8171010273
 F      0.7138075259    -0.6828234618    -4.3951763224
 H      0.8202265055     0.7402007553    -3.5432051240
 F      1.0439490963     1.5113268320    -3.1002584273
