          10
Energy: -37.879465480041006 Kcal/mole
 H     -2.7681988078     2.2456096652    -3.3310850254
 F     -2.9052697540     2.9039283650    -2.7076132577
 H     -1.6022691596     3.8438412695    -2.2843606076
 F     -0.7926336066     4.2482962503    -2.1367278207
 H      0.5939904050     3.4639668589    -2.6033557219
 F      1.2522970103     2.9187537069    -2.9354160058
 H      0.7663301904     1.6088247047    -3.8233394353
 F      0.3437247561     0.9372847911    -4.2830434610
 H     -1.3102048018     0.9707815634    -4.4409903324
 F     -2.2141766246     1.1235710408    -4.4215142162
