          10
Energy: -37.87024070323051 Kcal/mole
 H      0.8909914103    -2.1791556397    -1.4396768420
 F      1.0108015648    -2.7241709696    -0.7120142711
 H     -0.3258539848    -3.5319899997    -0.1490480135
 F     -1.1397868405    -3.9233649062     0.0097851977
 H     -2.2118685483    -3.9567206278    -1.2610702032
 F     -2.6960600100    -3.8685742996    -2.0348129598
 H     -2.2751043754    -2.7122094813    -3.1561269243
 F     -1.8996699676    -2.0551139693    -3.6739719721
 H     -0.4156527121    -1.5091881473    -3.1801500324
 F      0.3860632719    -1.3158688319    -2.7791910279
