          10
Energy: -37.883416504063035 Kcal/mole
 H     -3.3516516083     2.4198431889    -3.4829731319
 F     -3.2863257702     3.0433194399    -2.8137206389
 H     -2.0773230655     4.1797312638    -2.8960442447
 F     -1.3648592695     4.7259709226    -3.0828772573
 H     -0.4263533739     4.3549866189    -4.4025230625
 F     -0.0217680431     4.0272001416    -5.1573447205
 H     -0.7706551768     2.8165586130    -6.0025458781
 F     -1.2952311213     2.1468576838    -6.3449049643
 H     -2.5664590085     1.6047143375    -5.4272939098
 F     -3.2256107495     1.4298684320    -4.8142385357
