          26
Energy: -103.7494497676415 Kcal/mole
 H      0.0917670304    -2.2298614053     2.9924101230
 F      0.3703420939    -1.8897989076     2.1876477782
 H     -0.3984109836    -5.3215526862     6.2918637648
 F     -1.1484644515    -5.1732359205     6.7981353640
 H     -0.6893499833    -2.1535554885     5.1053270898
 F     -0.3362788197    -2.7569542794     4.5119135303
 H      1.0288670358    -7.0998150668     0.6159370763
 F      0.9080354931    -7.0415116959     1.5230696219
 H      2.9278967293    -4.1015282467     0.9462277800
 F      3.0408107347    -4.9448296078     0.6042011118
 H      4.1740244545    -7.0192761319    -1.6894325461
 F      3.6340503363    -7.7290984949    -1.9026675448
 H      1.8916234499    -2.3070048748     1.7167636062
 F      2.7371055103    -2.5598307459     1.4675083869
 H      2.0868449800    -7.4661895592    -1.3892594684
 F      1.2842693116    -7.2125963927    -1.0253201844
 H     -1.3653313047    -1.7745980537     7.0450743335
 F     -1.3020196035    -1.2371615516     6.3047753165
 H      1.0186687288    -5.2568160988     4.5137304791
 F      0.9740735072    -5.5318332384     5.3873813471
 H      1.0760544181    -5.6230733338     2.3623026710
 F      1.1068060962    -4.8770956591     2.8947128917
 H     -1.3080911014    -3.8276198365     7.7504377820
 F     -1.3629706856    -3.0043191345     8.1505042582
 H      4.2781967753    -5.2995987951    -0.4546670937
 F      4.8518850909    -5.6372309283    -1.0853613613
