          26
Energy: -103.76715308181727 Kcal/mole
 H      0.0977167083    -2.2539475347     2.9773674670
 F      0.3967962885    -1.9067736182     2.1830686086
 H     -0.4058271997    -5.3312713217     6.2768739122
 F     -1.1909379587    -5.2261284148     6.7388642423
 H     -0.7914958374    -2.1968589023     5.0495657971
 F     -0.3913778908    -2.7906388676     4.4766609344
 H      1.1197770782    -7.1110084968     0.7386230307
 F      1.0845255830    -7.0624512422     1.6536577432
 H      2.9995071871    -4.0804436894     0.9594477688
 F      3.1256106794    -4.9275644706     0.6317691287
 H      4.0378939106    -6.9112915245    -1.8332243309
 F      3.4877304121    -7.6218502391    -2.0157495020
 H      1.9286362041    -2.2938089162     1.7058858325
 F      2.7755650604    -2.5290528007     1.4446181018
 H      1.9898418433    -7.4058272301    -1.3586927937
 F      1.2175227134    -7.1818728367    -0.9179472989
 H     -1.5789514997    -1.8362844434     6.9514155613
 F     -1.4904252953    -1.2969338987     6.2151050961
 H      1.0950661989    -5.1995525094     4.5778200170
 F      1.0239569715    -5.4613164449     5.4537835550
 H      1.2256497479    -5.6155258424     2.4480928605
 F      1.2328565511    -4.8520327052     2.9559464728
 H     -1.4792544911    -3.8848528837     7.6671075389
 F     -1.5999997147    -3.0636189830     8.0568311222
 H      4.2518917182    -5.2328597654    -0.5566547973
 F      4.7588920359    -5.5392452833    -1.2566316485
