          26
Energy: -103.55844762634436 Kcal/mole
 H      0.4375338045     0.5435053743     3.5963301229
 F      1.3441211185     0.5466213432     3.4585668008
 H     -3.5158955362    -0.4374357282     1.9882712262
 F     -3.9174164711     0.3570638479     1.7681795128
 H     -1.6185157800     1.3787379928     4.1530454953
 F     -1.2334426296     0.6417438081     3.7664614287
 H      0.4276714125    -5.0454351065     1.9991971799
 F      0.4133659155    -4.4928307038     2.7308478663
 H      1.6845892579    -2.0128562790     0.7000514799
 F      1.4261827051    -2.8004014871     0.3077663812
 H      2.5842532081    -5.4308784365    -1.3195656438
 F      2.4134338992    -6.2562195178    -0.9582875471
 H      1.9384076176    -0.2125780847     2.1180307778
 F      2.2550525161    -0.6044074080     1.3518096677
 H      1.1513578538    -6.2031795950     0.0910748855
 F      0.4536375769    -6.0414941810     0.6637294429
 H     -3.3508075391     2.5141643117     4.3718067680
 F     -2.5068436161     2.6377068976     4.7084833580
 H     -1.8538490135    -1.8720763142     2.5352341091
 F     -2.7628018474    -1.8543959127     2.4153126803
 H      0.0408161666    -2.8844333256     2.6670745048
 F     -0.2129657560    -2.0032914346     2.6585478627
 H     -4.5150390512     1.4147972511     2.8995655209
 F     -4.7083286678     1.9984839082     3.5798875111
 H      2.2410852255    -3.3496834050    -1.0306545868
 F      2.6731343028    -3.8132183257    -1.6934954215
