          26
Energy: 7.772449504178638 Kcal/mole
 H      5.3346874956    -0.8675384554     1.2291803345
 F      6.2516874956    -0.8675384554     1.2291803345
 H     -3.0122602863    -2.5541718735    -1.1284015107
 F     -2.0952602863    -2.5541718735    -1.1284015107
 H      3.7276319327    -3.0710376560    -2.3762592066
 F      4.6307211772    -3.2301565312    -2.3762592066
 H      0.7214992565     5.1191335348    -4.6607649784
 F      0.1621180952     5.1191335348    -3.9341414745
 H     -0.8043516633     2.6736096839     1.7021195382
 F     -1.5541334580     3.2015455326     1.7021195382
 H      3.0812637013     4.3266490733     3.1854174426
 F      3.9982637013     4.3266490733     3.1854174426
 H      4.1336440245    -0.4323517699     2.2193990756
 F      3.2168752512    -0.4529434271     2.2193990756
 H     -4.4291847609     5.9146833293    -3.7506871394
 F     -4.1255141534     5.0494243149    -3.7506871394
 H      3.1839890890     0.9499550676    -2.8502556865
 F      2.8913864778     0.0808907938    -2.8502556865
 H     -2.7482377581    -3.1889911567     3.4071844789
 F     -1.8312377581    -3.1889911567     3.4071844789
 H      4.4168435397    -3.6420273341     4.2726179422
 F      5.3338435397    -3.6420273341     4.2726179422
 H      5.2061562017     4.1247497518    -2.1502555063
 F      4.5361060249     4.7507863006    -2.1502555063
 H     -4.9282179186     6.1911941682     2.0195432090
 F     -4.5997343369     5.3350472553     2.0195432090
