          26
Energy: -103.73893183899455 Kcal/mole
 H      0.0726535155    -2.1898570307     3.0281137993
 F      0.3818919924    -1.8320560490     2.2424681910
 H     -0.3300374743    -5.2873036934     6.3251739871
 F     -1.0711048511    -5.1613756714     6.8503884922
 H     -0.8140267678    -2.1786525391     5.1106160244
 F     -0.4208040289    -2.7572242516     4.5177250976
 H      1.0471924727    -7.0710158925     0.6228159863
 F      0.9219468089    -7.0173645570     1.5296368384
 H      2.9529216844    -4.0971887904     0.9996097318
 F      3.0974226433    -4.9462786941     0.6848799934
 H      4.2025428980    -6.9282923271    -1.6823096212
 F      3.6689683556    -7.6436163893    -1.8932567562
 H      1.8879298296    -2.2797411945     1.7332290186
 F      2.7237402739    -2.5398516559     1.4600030151
 H      2.1155262373    -7.4006141952    -1.3819261792
 F      1.3082772391    -7.1599385212    -1.0195544434
 H     -1.4550639879    -1.8120585602     7.0711795865
 F     -1.4722621358    -1.2967149667     6.3128826761
 H      1.0448549626    -5.1961125513     4.5142768033
 F      1.0263991575    -5.4557568677     5.3935567429
 H      1.0806660939    -5.5886692365     2.3627965095
 F      1.1012019433    -4.8365709665     2.8870249627
 H     -1.2327048822    -3.8206240413     7.8131083571
 F     -1.2999199227    -2.9958581681     8.2082442740
 H      4.3107242756    -5.2417162170    -0.4150247547
 F      4.8705649320    -5.5448878716    -1.0749901988
