          26
Energy: -103.7268128961006 Kcal/mole
 H      0.2541422698    -2.1922976326     3.1049548891
 F      0.5240896447    -1.8393931126     2.3027854465
 H     -0.5104901550    -5.3993255227     6.1787424496
 F     -1.2655835006    -5.2086050913     6.6628382629
 H     -0.3661474001    -2.1501496480     5.2637275723
 F     -0.1460235795    -2.7578109266     4.6132029577
 H      1.1647066348    -7.1803873729     0.6457107205
 F      1.0655816371    -7.0955905738     1.5533850772
 H      2.9719998341    -4.0937039946     0.9099761757
 F      3.0560269492    -4.9239228912     0.5297590960
 H      4.2303204371    -6.9640383894    -1.7556807179
 F      3.7447146544    -7.7283353817    -1.9003393896
 H      2.0183772244    -2.2967788907     1.7757915235
 F      2.8472476310    -2.5713614490     1.4956714282
 H      2.1928288117    -7.5531869509    -1.3626672419
 F      1.3813902198    -7.3396970787    -0.9926963161
 H     -0.9823665397    -1.8261300104     7.2263823957
 F     -0.7820123832    -1.2396507432     6.5505205155
 H      1.0002606967    -5.3566132722     4.4818491293
 F      0.8832264947    -5.6828082097     5.3308419787
 H      1.2029897242    -5.6513916945     2.3648572779
 F      1.2101367620    -4.9065890277     2.8997468996
 H     -1.3030981032    -3.9282184290     7.7174259752
 F     -1.2679903007    -3.1411998301     8.1867426777
 H      4.2472681837    -5.1947332347    -0.5991725493
 F      4.8108198869    -5.4944612610    -1.2575505473
