          6
Energy: -0.18924821462023458 Kcal/mole
 Ar     5.2287028349     1.6415211520     2.7594820975
 Ar    -4.1071435533    -0.5717685446     0.4199110467
 Ar     7.5146060881    -4.2644759662     4.7045732043
 Ar    -6.7765749924    -4.6890958673    -7.7317464335
 Ar     7.9434445170     2.6761446056     6.1499154782
 Ar    -0.5136854864     7.1038228450     3.5179108472
          6
Energy: -1.2519733350923485 Kcal/mole
 Ar    -0.2122769690    -2.9965528035     4.9147547858
 Ar    -3.7375730764    -4.2799349168     3.8495708576
 Ar     2.6690532781    -5.1265685850     3.1165742066
 Ar    -1.1730948807    -6.5546940619     1.8990862364
 Ar     5.3149736734    -2.1637462753     3.1816005521
 Ar    -4.1374646628     4.7608308057     5.6082657313
          6
Energy: -0.8492123160160153 Kcal/mole
 Ar     1.1218874255     2.1198216534     1.8411849341
 Ar    -1.4532729137     4.4245497185    -5.4473089176
 Ar    -6.5002673025     2.8678194130    -5.5154145025
 Ar     4.7527694789     8.0697744135     5.7464247576
 Ar     2.4219221467     4.7764898737     4.2728964081
 Ar    -3.9323260232     4.9490267282    -7.9209296158
          6
Energy: -0.6952792729366987 Kcal/mole
 Ar    -5.0243083860     0.5173235966     4.0473852229
 Ar     2.5080793962     3.6318687618    -7.4100220444
 Ar    -2.4694521098     4.8767316057     0.3644538329
 Ar    -2.9732525984    -1.5775014747     6.6026459073
 Ar    -2.1152772546    -2.2406862585     2.1172095469
 Ar    -7.4760306624    -0.0132195879    -0.0012098149
          6
Energy: -0.18788745787931138 Kcal/mole
 Ar    -7.3004706809     2.0437201067    -3.4309150569
 Ar     0.0810564494    -2.8926734935    -4.3414342217
 Ar    -0.6449936121     1.7263415912    -3.2093426108
 Ar    -1.6047897717     1.3268898579     3.5284921055
 Ar     1.4817046548    -5.7748676593     4.1872875411
 Ar    -7.0916778140     0.3122186489     5.5208646201
          6
Energy: -1.1289723543476973 Kcal/mole
 Ar    -3.7860951207     3.9323389260    -5.3052526845
 Ar    -8.2215142112     7.2574226453     0.0118735014
 Ar    -4.1221505882     5.7411818486    -1.9529630334
 Ar    -2.5372594559    -1.4261687782    -1.6390710303
 Ar    -6.9101369238     3.4349530847    -2.6084637543
 Ar    -0.2955459918     3.4764465777    -7.4725703854
          6
Energy: -1.6762949665076334 Kcal/mole
 Ar    -0.9338283930    -2.6136770373    -0.8632059799
 Ar     0.8765440710    -4.9058991872     1.2113689005
 Ar     2.0291636843    -4.4499638294    -2.2834010429
 Ar     2.4437834140    -8.1332638539    -0.0368798678
 Ar     0.2982407711    -7.1299347047    -5.4980275850
 Ar     2.3134670857    -4.2954834013    -6.0561698907
          6
Energy: -2.6502167990490837 Kcal/mole
 Ar    -1.1493808115    -6.7311081413     1.0871377959
 Ar     3.8216283836    -2.7082144161     2.6883656182
 Ar     4.3960199032    -5.4527927189     5.2778645882
 Ar     0.3710825431    -4.3873268156     3.7546955775
 Ar     2.8908996848    -6.1249694762     1.6742555040
 Ar     0.6937779954    -3.2983424939     0.2605854539
          6
Energy: -2.4372769814834823 Kcal/mole
 Ar    -1.2042790336    -8.0464614404     4.2633770243
 Ar    -1.0122787607    -1.9917261976     2.5132270861
 Ar     0.1757574502    -4.7758525675     5.0121911525
 Ar    -3.2640450268    -4.0205510943     4.6777731321
 Ar     2.3232582598    -5.4305367653     2.0690828669
 Ar    -1.2985262668    -5.3217681161     1.5114333957
          6
Energy: -2.876731968288601 Kcal/mole
 Ar    -2.4144791515    -7.4239094894     4.5759387518
 Ar    -0.5467928569    -1.9492478157     2.3538652206
 Ar     0.2915366751    -4.7629570278     4.7533229173
 Ar    -3.3230125238    -3.7286144245     4.2631737004
 Ar     2.1478978553    -4.4901780738     1.4311843857
 Ar    -1.5211868786    -5.5004627973     1.4195322217
