          6
Energy: -2.972454936434633 Kcal/mole
 Ar     5.8840630588    -5.7741188098    -2.5895565121
 Ar     6.8143784076    -3.0450127732    -0.1486001569
 Ar     4.3979116637    -4.5140111252     2.3996106525
 Ar     3.4662428016    -7.2499344777    -0.0598546465
 Ar     7.1187571588    -6.6987563968     0.8841714306
 Ar     3.1597765365    -3.5787821521    -1.0621954291
