          6
Energy: -2.876731968288601 Kcal/mole
 Ar    -2.4144791515    -7.4239094894     4.5759387518
 Ar    -0.5467928569    -1.9492478157     2.3538652206
 Ar     0.2915366751    -4.7629570278     4.7533229173
 Ar    -3.3230125238    -3.7286144245     4.2631737004
 Ar     2.1478978553    -4.4901780738     1.4311843857
 Ar    -1.5211868786    -5.5004627973     1.4195322217
