          28
Energy: -112.18161206044427 Kcal/mole
 H     -1.3505270910     2.5937237403     2.3079655878
 F     -0.5625829992     2.3722560638     2.7214691265
 H      2.7000427226     2.3726253198     3.6896555474
 F      2.7982106327     2.8008804163     2.8847644779
 H     -5.2977651788     1.8265282368    -6.2404579110
 F     -6.1824756519     2.0047898207    -6.0779796461
 H      2.1986308690     2.2039196432     1.4548319318
 F      1.8500128558     1.8685885509     0.6757892247
 H     -2.9665503559     2.9901823510     0.7812060416
 F     -2.8458169146     2.9502889789     1.6893475256
 H     -2.3891307819     2.3844618204    -3.3571909760
 F     -3.2112343199     2.3019954349    -3.7549774364
 H      1.3900792757     1.6544316811     5.2600276338
 F      2.2894416176     1.6006186194     5.0893216516
 H     -0.7063159971     2.5830903302    -1.8636548068
 F     -0.8445910288     2.4643268400    -2.7623562306
 H     -0.4775768285     2.0496757016     4.3517288179
 F     -0.2490281167     1.8576042425     5.2187715164
 H     -5.9194241624     2.9265133294    -2.5163882529
 F     -5.6518660828     2.6002710976    -1.7022213902
 H     -3.3827163555     1.8520300802    -5.3478309403
 F     -3.6572596472     1.6373452024    -6.1960204146
 H      0.3966230072     2.4262848714     0.1241704223
 F     -0.3915169512     2.7345515294    -0.2289528897
 H     -4.1028154096     2.8595120545    -1.1924292500
 F     -3.2604918869     3.0137068026    -0.8643986681
 H     -6.3866152997     2.9847716665    -4.7656664587
 F     -6.3742961831     3.5009030141    -4.0078104885
