          28
Energy: -3.1825072473588776 Kcal/mole
 H     -3.6234322949     1.8741653536    -5.2201406061
 F     -4.1962958285     2.5902075114    -5.2201406061
 H      1.2965050515     1.5169246494    -5.4233732453
 F      0.5648418259     1.5169246494    -4.8706003043
 H     -0.9730088051    -0.4662154012     3.2322900264
 F     -0.0560088051    -0.4662154012     3.2322900264
 H      6.7336062828    -4.6702258629    -4.5310184071
 F      5.8312037613    -4.8331942317    -4.5310184071
 H     -0.3470988663    -6.0675363025     1.6376293671
 F     -0.4158274611    -5.1531155130     1.6376293671
 H      3.5927301243    -0.7393357728     1.9896598288
 F      4.2583246370    -0.7393357728     1.3588881231
 H     -2.2328060705    -5.1431831293    -1.7127331737
 F     -2.3812619430    -4.2382799003    -1.7127331737
 H      4.8293787142     4.4617182138     4.6744084484
 F      4.6069456051     3.5721045269     4.6744084484
 H      0.9063847708     4.4070650530     4.2623572516
 F      0.3217968178     4.4070650530     3.5558546507
 H     -0.1214927074     4.3983010367    -1.1976750448
 F      0.7955072926     4.3983010367    -1.1976750448
 H     -3.7058509797     4.7818762207     4.0310025063
 F     -2.7888509797     4.7818762207     4.0310025063
 H     -2.9691853436    -0.3525580519    -2.7155304267
 F     -2.0521853436    -0.3525580519    -2.7155304267
 H     -3.3001732498     3.9547804566    -0.9387230909
 F     -2.3831732498     3.9547804566    -0.9387230909
 H      3.2162179829    -3.8518973119     5.0422923547
 F      3.9142922643    -4.4465243358     5.0422923547
