          28
Energy: -111.91808524009065 Kcal/mole
 H      1.0528705208     2.8318490066     0.9565050635
 F      1.8811279657     3.1865012954     0.7859167901
 H      5.2310652804     2.9296101858    -0.1874907822
 F      4.8902527272     2.3663294425    -0.8258093608
 H     -6.6924977623     1.5816262872    -3.4359832280
 F     -7.3079636566     1.6609113395    -2.7608501942
 H      3.6006656242     2.6716397679    -1.8270310139
 F      2.8623657811     2.8205000193    -2.3501399578
 H     -0.9911820229     1.9512946126     0.6818135255
 F     -0.4417312972     2.2476349334     1.3535093751
 H     -2.6113491033     0.7599960254    -3.0817679729
 F     -3.4885151863     0.5341266779    -2.9387585300
 H      4.9695090031     3.9957498963     1.6803075706
 F      5.6356532545     3.9411088502     1.0524897686
 H     -0.4653794090     1.3493495045    -2.7957195729
 F     -1.0653300229     1.1777755053    -3.4676649752
 H      2.8976409594     3.6905994325     1.9997016099
 F      3.5799666628     3.9494884729     2.5549466902
 H     -4.9898532700     0.7659466015     0.1058366423
 F     -4.2077984847     0.3419243961     0.3282877205
 H     -4.6682178489     1.0527069618    -3.9835900624
 F     -5.3970096338     1.3731462019    -4.4386397605
 H      1.4575489094     2.1135868644    -1.8617295907
 F      0.6789788526     1.6929003489    -1.6214370141
 H     -2.8209001637     1.0158314530    -0.2366269897
 F     -2.0531065019     1.4445062366    -0.4966651078
 H     -6.7404261619     1.6533322343    -1.2061073835
 F     -6.3306896431     1.6332912407    -0.3859834028
