          28
Energy: -112.17492317822254 Kcal/mole
 H     -1.3476780231     2.6373022867     2.3164682277
 F     -0.5565480783     2.4266804867     2.7295552256
 H      2.7045896084     2.3379733759     3.6839592293
 F      2.8054716468     2.7826558341     2.8883655354
 H     -5.2858446228     1.8197078030    -6.2241111742
 F     -6.1736616964     1.9646223194    -6.0461515530
 H      2.2038383361     2.2072706150     1.4534804303
 F      1.8532661369     1.8805294397     0.6716694957
 H     -2.9683617286     2.9913270337     0.7857735336
 F     -2.8474154558     2.9644271312     1.6943644175
 H     -2.3964508398     2.3737720407    -3.3437980853
 F     -3.2180723676     2.2807163767    -3.7402419129
 H      1.3886329876     1.5983937481     5.2409046912
 F      2.2870355289     1.5376765862     5.0674823743
 H     -0.7035656754     2.6081628068    -1.8657593700
 F     -0.8483056519     2.4783353284    -2.7619090032
 H     -0.4740195896     2.0504097052     4.3472537744
 F     -0.2480041855     1.8247526036     5.2068379236
 H     -5.9250815987     2.9284037899    -2.5106749189
 F     -5.6576236753     2.6051744898    -1.6952743555
 H     -3.3733144859     1.8808861762    -5.3495399141
 F     -3.6422530067     1.6891079646    -6.2049826004
 H      0.4097745601     2.4627718991     0.1140137112
 F     -0.3746784085     2.7811471071    -0.2383494068
 H     -4.1011535726     2.8444753570    -1.1874352544
 F     -3.2570848107     2.9900385303    -0.8599474108
 H     -6.3877962036     2.9644271075    -4.7528075789
 F     -6.3792645573     3.4948121110    -4.0048049325
