          28
Energy: -112.1653460631554 Kcal/mole
 H     -1.3082396720     2.7411973392     2.2976814910
 F     -0.5242975240     2.4902342084     2.7018364310
 H      2.6770333704     2.3227107922     3.6765174984
 F      2.7886136422     2.7856284746     2.8928427813
 H     -5.2979808386     1.7592852489    -6.2166605410
 F     -6.1739839584     1.9881904984    -6.0713680058
 H      2.1946478600     2.2681090298     1.4301197073
 F      1.8529883756     1.9762627179     0.6307552554
 H     -2.9431864412     3.1147985407     0.7953355630
 F     -2.8011222235     3.1368659309     1.7009954265
 H     -2.4059895284     2.2868981642    -3.3182644050
 F     -3.2270375515     2.1325530716    -3.6963473803
 H      1.3468796186     1.6189009805     5.2234601769
 F      2.2388686816     1.5087202675     5.0415131460
 H     -0.7131959098     2.6730888047    -1.8693587128
 F     -0.8608486597     2.5073320038    -2.7590847090
 H     -0.4807812447     2.1534420440     4.3261723865
 F     -0.2753330997     1.9384164251     5.1936077115
 H     -5.9114281176     2.9367636638    -2.4954949242
 F     -5.6670707527     2.6266506001    -1.6678426023
 H     -3.4011135431     1.6787561882    -5.2895948993
 F     -3.6733832919     1.4776740761    -6.1418414412
 H      0.4124210122     2.5776390610     0.0945888841
 F     -0.3719431073     2.9040830259    -0.2505143843
 H     -4.1112071132     2.8611973003    -1.1616626527
 F     -3.2645580950     3.0142953075    -0.8444317587
 H     -6.3432037794     2.9760396509    -4.7634917839
 F     -6.3149758589     3.4943045963    -4.0075198063
