          6
Energy: -1.460034184483085 Kcal/mole
 Xe     0.0016177977     8.4676727186    -2.3216443541
 Xe    -3.7009629894     7.4187775910    -4.4131563786
 Xe    -5.4671356560     6.9480319204    -8.5159852567
 Xe    -0.6616704129     3.7593413527    -6.3024182905
 Xe     2.8256898296    -5.1431702467     1.4972856826
 Xe     1.2353680327     3.8349698084     2.8534656414
          6
Energy: -1.5335050990755492 Kcal/mole
 Xe    -1.8715202611    -3.2057127150     1.1187556865
 Xe    -7.8566492356     3.0486394633    -2.0767816631
 Xe    -1.5341254218     3.0604557029    -0.2365594966
 Xe     1.6612860616    -2.1128379723    -0.4485194146
 Xe    -4.0064620506     0.3715347048     2.2499151162
 Xe     2.4149270101    -4.2676510608    -7.5306336489
          6
Energy: -1.4708919514554522 Kcal/mole
 Xe     6.5228341558    -5.3343801919     4.4284965278
 Xe     1.2444906211     1.6476619943     6.5166830438
 Xe    -2.4686451199     2.0170610627     8.0065890711
 Xe     8.2750251529    -2.1653088910     6.9235397001
 Xe    -0.8716500625     5.6329942437     5.5498819785
 Xe     3.8463455277    -7.1931207014    -7.2231524107
          6
Energy: -2.3713310563171546 Kcal/mole
 Xe    -4.3800256680    -0.5787890881     4.1336976373
 Xe    -3.7151905148     3.0689584292     1.6091199209
 Xe    -7.4396977324     4.4174689479     1.8000282610
 Xe    -2.9501982751     0.0728477985    -1.2364125648
 Xe    -2.7235333908     7.1111209558     2.9193210916
 Xe     1.4027173167     7.2144350100     4.8507750401
          6
Energy: -3.0694311570447717 Kcal/mole
 Xe    -1.0556968765    -2.6596980991    -6.0492275858
 Xe     2.6482948008    -2.9676975896    -3.3390544893
 Xe    -4.4725201142    -0.5612599766    -8.0253645741
 Xe     2.0417840905     0.8118393794    -6.3366049772
 Xe     5.4560912785    -3.3045048634    -7.4937544677
 Xe    -0.1568639611    -6.2494093411    -2.7641212713
          6
Energy: -4.090604316127893 Kcal/mole
 Xe     2.3739505871    -5.0026975465     3.6471608961
 Xe     2.8252068986    -8.5529705127    -3.4346832247
 Xe    -0.6108695500    -1.9423919482     0.9242895203
 Xe    -0.3547400374    -5.0611226635    -4.3481697178
 Xe     3.1486471729    -4.1921159609    -1.0175543773
 Xe    -0.1427621887    -6.5163153467     0.0275605335
          6
Energy: -4.231768340589977 Kcal/mole
 Xe     3.6365902024    -6.0741466215     3.7626236212
 Xe     3.4381840780    -8.7506572634    -0.0366241000
 Xe     4.6754600109    -3.3908891573    -0.7595659595
 Xe     2.9864544105    -6.3072612256    -3.7975573696
 Xe     7.3907524056    -5.9542126677     0.4876251302
 Xe     0.9454169421    -5.2086977421     0.3172471870
          6
Energy: -4.994438720973093 Kcal/mole
 Xe     5.4792447512    -2.4923597503     2.1505970133
 Xe     4.9300014501    -5.9699886196    -0.3031564624
 Xe     4.2080142370    -1.8996100585    -1.9343040823
 Xe     5.2804525767    -4.8267508417    -4.8696137363
 Xe     8.2849980705    -3.2705377682    -1.2357546354
 Xe     1.4915866214    -5.8200253607    -3.0972982993
          6
Energy: -5.3266229883851155 Kcal/mole
 Xe     2.7823085555    -3.3354012943    -3.2932599933
 Xe     5.4582164937    -6.9301878761    -2.4070984976
 Xe     5.7801664458    -2.3127285207    -6.7313069522
 Xe     8.3650954952    -5.6596811433    -5.6555393444
 Xe     7.0857135163    -2.9958900597    -2.4711782019
 Xe     4.1540221180    -6.3496267860    -6.6710692746
          6
Energy: -5.502965711076067 Kcal/mole
 Xe     2.8276438951    -3.6553635415    -3.5564247565
 Xe     5.5068207977    -7.0018549524    -2.5543444827
 Xe     5.6764164583    -2.3173793725    -6.6560432439
 Xe     8.3324073284    -5.6589668358    -5.6542582709
 Xe     7.0235203545    -2.8802985020    -2.5247081683
 Xe     4.1277132414    -6.4197828713    -6.7047660941
