          6
Energy: -4.539885037038058 Kcal/mole
 Xe    -1.9420886527     8.6989052706     4.1333242202
 Xe    -5.5860385793     3.7465138975    -0.2465283632
 Xe    -5.1699376016     5.8582489517     3.6300918068
 Xe    -1.5967141797     4.2957211728    -1.5724141894
 Xe    -1.2285956649     3.8416424354     2.4503361839
 Xe    -3.2225448040     7.9229640286     0.0355886543
          6
Energy: -3.879423705714198 Kcal/mole
 Xe     1.3737566206     2.9530559202    -0.5212607576
 Xe     0.6791152012     3.9318306416     3.8607044730
 Xe     0.9727138387     7.8063015135     2.8757103873
 Xe    -3.3775358380     4.4239644792     2.5992989636
 Xe    -2.0116704583     7.5979664564    -0.2682116971
 Xe     2.9586010006     7.2134815966    -1.0132987753
          6
Energy: -4.002737075839089 Kcal/mole
 Xe    -1.2079545381     3.0640979831     1.0402908858
 Xe     1.5090837951     0.0500381909     1.3772045943
 Xe     3.0036859874     4.2476042557     1.9805494859
 Xe     3.9236275037    -0.8320929286    -3.8050283302
 Xe    -0.4108523237    -1.1858164947    -2.2633850043
 Xe     1.6501130922     3.7456120247    -2.1761898334
          6
Energy: -4.3245098439657825 Kcal/mole
 Xe     2.1038358078    -1.9491547504    -3.0327952283
 Xe    -1.1837022430    -2.0159804129     0.2227660591
 Xe     1.1324195129     1.3344809838     0.9504456047
 Xe     3.4556136948    -2.2778008379     1.2466750521
 Xe    -3.1460589375     1.5868705559     1.6779239660
 Xe    -2.5890522247     0.7220383796    -3.1321983989
          6
Energy: -3.9631131524413554 Kcal/mole
 Xe    -1.2719635589     0.4397851784     1.8948463214
 Xe     3.9068413090     2.3928343560     3.0995204659
 Xe     2.1968613222    -1.6742970892     1.7728711983
 Xe     5.9661585255     0.9153539992     6.6295841737
 Xe     1.2119990668    -0.8531082360     6.0949193413
 Xe     0.0949698822     2.9784337993     4.8924730711
          6
Energy: -4.767459862213193 Kcal/mole
 Xe    -0.7918714900     0.5541016037     3.4816446092
 Xe     2.4770576098     3.5279747452     4.2427444005
 Xe     3.4657473490    -1.3112542993     4.6572145526
 Xe     5.1787088227     1.8676037635     7.8002507725
 Xe     0.9121431385     0.9347066131     7.4363851337
 Xe     2.8320515746     5.7609920774     8.2029803647
          6
Energy: -4.922412962425575 Kcal/mole
 Xe     3.6040431763    -2.0464622480     4.5252174163
 Xe     6.9103754796     0.6293110677     4.1675334358
 Xe     7.4860751276     2.2621635333     8.1789989337
 Xe     6.8983047192    -1.8188097983     7.5568322672
 Xe     2.8130780849    -2.8214584014     8.8334227700
 Xe     3.3005238068     1.6908040411     6.8951363248
          6
Energy: -5.1031472047640065 Kcal/mole
 Xe     5.9595223655    -2.0934401096     3.7334016754
 Xe     6.6761958712     1.6183049958     1.4307072279
 Xe     6.1881809437     5.1538074142     4.5541337154
 Xe     8.1067905276     1.3135243081     5.5223123885
 Xe     5.1268158637    -0.8530474963     8.0425942078
 Xe     3.6246313497     1.2587419139     4.7418269690
          6
Energy: -5.265317794643837 Kcal/mole
 Xe     2.0683902310     0.2490142920     2.7155158223
 Xe     5.1390784766     3.1837821765     1.4953442704
 Xe     8.6563976969     3.0144366569     4.2945720262
 Xe     6.5723336468    -0.6582055400     2.9181895900
 Xe     3.7358405361    -2.1121266410     5.9272717857
 Xe     4.5063311431     2.2876532594     5.6795658212
          6
Energy: -5.3255475615595875 Kcal/mole
 Xe     2.1595100413     0.1338081641     2.6761320662
 Xe     4.9840911671     3.2680614580     1.4418826943
 Xe     8.5283783983     3.0888129937     4.0809378982
 Xe     6.4770631101    -0.6192507844     2.9126950539
 Xe     3.8205837420    -2.0496127740     6.1370352397
 Xe     4.5308639441     2.2529499070     5.7279927329
