          6
Energy: -5.50282869899871 Kcal/mole
 Xe     5.8769900781    -1.1375900596    -0.6296701493
 Xe     3.4159527462    -3.2578459432     2.3543713741
 Xe     2.0056070749     0.5105251691     0.6152635488
 Xe     5.7251671432     2.4951501401     1.8441071861
 Xe     3.2903411166     0.3886986660     4.8116386952
 Xe     7.1558569385    -1.2979945233     3.5952701486
