          6
Energy: -2.5189472060682814 Kcal/mole
 Xe     5.1344150978     6.1991583398     1.6457959710
 Xe     2.0655952239    -4.0566685734     0.6719839430
 Xe     2.2954515350     0.1005933174     2.6870655267
 Xe     4.4553949271    -2.8876628666     5.0452868571
 Xe     8.1204270999    -3.9166784415     1.4090493687
 Xe     8.3754791166    -1.4014645552     4.9066733173
          6
Energy: -2.0390291129187803 Kcal/mole
 Xe    -5.0977533330    -3.9662783679     2.3865640696
 Xe    -3.5621871223     6.9582290314     7.4375466532
 Xe    -0.9684719505    -1.3467199434     5.1328956144
 Xe    -6.9098916280    -0.6538337931     6.2477967017
 Xe    -4.7785197339     3.2501757878     4.2792370364
 Xe    -8.3878243099     5.6856834138     4.6004996258
          6
Energy: -4.434007902268776 Kcal/mole
 Xe    -6.6879760270     4.0315489492     3.7795301285
 Xe    -2.5559030973     7.1485554221     3.9467644705
 Xe    -3.9220866819     4.5037998412     6.8887977414
 Xe    -4.4736056073     0.0908615305     5.6487729134
 Xe    -2.9158680802     2.8510205202     2.8638851571
 Xe    -8.1233608982     1.5355136963     7.0418092017
          6
Energy: -4.5653292617334476 Kcal/mole
 Xe    -4.3497800763     8.2155419393     3.7942363150
 Xe    -7.8584036358     4.2380337224     6.2359422350
 Xe    -3.2960150708     2.5543398969     7.5847140642
 Xe    -5.2873191102     7.1982845344     7.9844717025
 Xe    -1.5127172560     6.1652605406     5.8533415808
 Xe    -4.4358719381     4.1170814036     3.6877242158
          6
Energy: -4.527187279493538 Kcal/mole
 Xe     0.5568557641     1.3074650870     3.9084569788
 Xe    -5.8573306801     5.2439805742     3.7609179275
 Xe    -3.3090376755     1.5823014131     2.1665373836
 Xe     1.2400708589     5.5227908891     6.2888542807
 Xe    -2.2713577768     3.2077921567     6.3666347372
 Xe    -1.0230529523     5.7494291271     2.3820114745
          6
Energy: -4.631473284350131 Kcal/mole
 Xe    -0.8583875267     3.6400700628     0.2305844471
 Xe    -4.2777378860     6.6502380861     0.6310039163
 Xe    -5.0974268885     3.1714220028     3.0953506796
 Xe    -2.8282490369     6.2094260941    -3.9684567029
 Xe    -2.7078901792    -0.1386891467     0.6845720874
 Xe    -5.1855833878     2.8557258329    -1.2687007767
          6
Energy: -4.848841948721144 Kcal/mole
 Xe    -4.4260266451     8.3696483375     5.9293774770
 Xe    -6.9306808512     3.7135671798     4.8704289893
 Xe    -3.1535409217     4.3449719710     6.7863974714
 Xe    -6.7852916915     7.6431725365     2.4048797999
 Xe    -6.4025680209     3.6915687340     0.5216412392
 Xe    -2.7169981673     5.6146710519     2.6900375949
          6
Energy: -5.210138407545881 Kcal/mole
 Xe    -1.3313365507     3.8620456540     4.1156245882
 Xe    -3.9823793730     5.0595896827     7.6114899940
 Xe    -0.2276325225     7.3802897338     6.7047420676
 Xe    -5.6695047937     3.3383956759     3.7183534702
 Xe    -3.5958313361     0.6827485482     6.4769842858
 Xe    -0.2112645068     2.9610510663     8.2239925239
          6
Energy: -5.266217888815839 Kcal/mole
 Xe    -1.6828234608     4.6611060042     4.5342660658
 Xe    -2.4183482690     5.9558040400     8.6700603856
 Xe     1.5804310351     6.4480819417     6.6651505389
 Xe    -5.7605498085     5.8531909851     5.5880822746
 Xe    -4.2497969821     2.0769025033     7.1398601449
 Xe     0.1111409749     2.4331560449     7.8896757645
          6
Energy: -5.325336653990896 Kcal/mole
 Xe    -1.6918633687     4.6810175629     4.5477754905
 Xe    -2.3968610803     5.9585387490     8.7375315947
 Xe     1.5693781407     6.4890296939     6.8944550136
 Xe    -5.6396192291     6.1416325371     5.7841231117
 Xe    -4.2043485257     2.2239116796     7.1877396896
 Xe     0.1111409749     2.4331560449     7.8896757645
