          6
Energy: -0.15192340176494118 Kcal/mole
 Xe     2.0468708749     2.0553915033    -2.9562830447
 Xe     5.8419195168     5.5158060468     3.4252602496
 Xe     4.6665748385    -3.7970913301     3.3334854888
 Xe    -2.5725459460    -5.5546484172     0.7935014891
 Xe     5.6923391540    -5.0880145623    -5.0087170303
 Xe    -3.9347341561     2.4449986838     4.5810228416
