          6
Energy: -1.42710886732732 Kcal/mole
 Xe     8.5658920020    -4.9261856575     2.6520780752
 Xe    -3.4901812042     2.5354761096    -2.3418596292
 Xe     1.2479104933     2.5879743389    -3.1855997986
 Xe     4.9487980582     2.3693057253    -7.3978595903
 Xe     2.1196064625    -1.7613789338    -7.4203241841
 Xe     7.2751395698    -8.8055651901     4.5120629373
          6
Energy: -1.5099624538014793 Kcal/mole
 Xe     8.8251387248     0.4029118734    -1.6582767260
 Xe     4.9540701345    -1.6291868270    -1.0197163177
 Xe    -0.1836864404    -5.9400730131    -2.0823823025
 Xe     0.0866388547     0.7000706670    -0.8337737461
 Xe     3.1978238999    -0.7221031288     4.5124864797
 Xe     3.1688152407    -2.4955503570     8.6246410908
          6
Energy: -2.1291364899760086 Kcal/mole
 Xe     8.0415710149    -6.1773492030    -5.8627101796
 Xe     4.7428448355    -6.4937963348    -2.9580093133
 Xe     5.6721840379    -2.4464863480    -3.8524093913
 Xe    -5.2481111956    -0.0240735853    -6.5886808710
 Xe     2.5310824665    -3.1709990891    -0.7194089912
 Xe     1.1038672415    -5.1738247180     5.9024626072
          6
Energy: -4.090227192941848 Kcal/mole
 Xe     2.2151449140    -1.8756009300    -2.4363564837
 Xe     1.5331377273    -3.8591916441     1.3526910545
 Xe     2.2614433758    -6.0954602251    -2.3172750355
 Xe     7.3434007280    -1.2310937944    -2.8604772779
 Xe     5.8421282985    -4.2904808104    -0.2847858459
 Xe    -0.7093207098    -4.3339933931    -5.2334358013
          6
Energy: -4.307455925168039 Kcal/mole
 Xe     2.8293692525    -1.3729110762     2.1964725043
 Xe     1.7861840532    -4.8195609535     4.5734369772
 Xe     4.7594949973    -2.4751821860    -1.2893368740
 Xe     3.6270387785    -6.0155689102     1.1495770483
 Xe     5.8647227188     1.0795422152     1.0282515162
 Xe     7.2514920373    -2.8951668364     2.2375282622
          6
Energy: -3.957678383486798 Kcal/mole
 Xe     7.6733515956     0.5308907486     7.7435643375
 Xe     8.2017760400    -4.0987170948     6.9875373374
 Xe     6.1122184484     0.3013437899     3.4834333079
 Xe     3.7993491731     2.6231506396     7.0835933621
 Xe     4.1858592104     3.0295354188     0.7121491029
 Xe     4.3906446902    -1.9925234085     6.6132656105
          6
Energy: -4.81100206173483 Kcal/mole
 Xe     8.7736380676     2.1085976643     1.0818315440
 Xe     7.4674248127     1.6109678004     5.0830801003
 Xe     8.0245536750    -1.8459588808     3.1823767152
 Xe     6.9871827895    -1.5136354543    -0.8636116537
 Xe     4.1897126105    -3.5200832258     1.9092000085
 Xe     4.4401241605     1.0969304208     1.9669130301
          6
Energy: -4.935051687329829 Kcal/mole
 Xe     1.9890004601    -2.0843258009     2.9503173854
 Xe     4.6032539853    -3.3318380842     6.2013355130
 Xe     3.2164394011     0.8311902548     6.2361380352
 Xe     5.1046042611     1.6505345242     2.1584832518
 Xe     8.0181061460    -0.2002337247     4.9303384732
 Xe     6.4063474399    -3.0133676728     2.2972423440
          6
Energy: -5.339408638051056 Kcal/mole
 Xe     5.9136671455    -1.0431126831    -0.9155493551
 Xe     3.4804877649    -3.3924962290     2.3383168574
 Xe     2.0657640685     0.4320876154     0.6895289345
 Xe     5.7764807802     2.5549883449     1.6169149410
 Xe     3.3741791638     0.4913880037     4.8069577226
 Xe     6.9574765994    -1.2151160805     3.4684298717
          6
Energy: -5.50282869899871 Kcal/mole
 Xe     5.8769900781    -1.1375900596    -0.6296701493
 Xe     3.4159527462    -3.2578459432     2.3543713741
 Xe     2.0056070749     0.5105251691     0.6152635488
 Xe     5.7251671432     2.4951501401     1.8441071861
 Xe     3.2903411166     0.3886986660     4.8116386952
 Xe     7.1558569385    -1.2979945233     3.5952701486
