          6
Energy: -5.3255475615595875 Kcal/mole
 Xe     2.1595100413     0.1338081641     2.6761320662
 Xe     4.9840911671     3.2680614580     1.4418826943
 Xe     8.5283783983     3.0888129937     4.0809378982
 Xe     6.4770631101    -0.6192507844     2.9126950539
 Xe     3.8205837420    -2.0496127740     6.1370352397
 Xe     4.5308639441     2.2529499070     5.7279927329
