          4
Energy: -0.005353152579953224 Kcal/mole
 Ne     6.6796837451    -5.1807821687    -1.5955868587
 Ne    -1.6919014810     6.0328618046     7.2862310110
 Ne    -6.9935236854     2.2126046499    -4.7683922847
 Ne     2.3641315353     2.8969768306     5.7145566929
          4
Energy: -0.004918252661960276 Kcal/mole
 Ne     2.5353161564    -1.0169898005     1.1348810765
 Ne     5.3029255336     7.3379845941     4.6918855631
 Ne     6.7986057437     2.8135601144    -2.4662185192
 Ne     2.8805903858     2.3784579711    -6.9411107805
          4
Energy: -0.0010256635762715262 Kcal/mole
 Ne    -5.6602281418    -2.4949006277     6.3348940286
 Ne     2.6310900222     1.7550715565     3.9816597582
 Ne     2.1737668046    -0.8110552883    -6.2262667921
 Ne     5.5879155924    -7.3632215670    -5.1033645425
          4
Energy: -0.0015708300597583717 Kcal/mole
 Ne    -6.3133979606     1.8373635528    -0.4923036502
 Ne     2.2071557272    -5.7280191442    -1.3623537887
 Ne     6.5382337914     4.1263386726     3.7716854631
 Ne     1.2128713861     6.9176566277     0.4382408015
          4
Energy: -0.012537455270097852 Kcal/mole
 Ne    -3.9799024028    -6.9200949494    -2.8822955464
 Ne     6.5367580672     1.3180414879     6.2201613695
 Ne    -5.6509809019    -2.1332272765    -2.0984478470
 Ne    -2.6090708626    -0.1663557433    -6.1027574460
          4
Energy: -0.15120567815382863 Kcal/mole
 Ne    -0.0712287379    -1.4831573928    -0.7201224826
 Ne     4.7214006663    -2.3985100373    -4.5351213545
 Ne     2.5708733402    -2.2147079928    -1.2570102046
 Ne     0.1366263474    -4.7223715963    -1.7520096969
          4
Energy: -0.001752527429984146 Kcal/mole
 Ne     4.4483290321     5.6420128697    -2.7296998272
 Ne     1.6108537535    -4.6267577924    -5.7229439567
 Ne    -6.3877764251    -6.1866917069     0.3143661809
 Ne    -3.9628247271    -0.2148522884    -3.6109483642
          4
Energy: -0.06051439871041804 Kcal/mole
 Ne    -4.3807559144    -1.5736823417     0.6515274242
 Ne    -1.7728239882    -4.5087615292     0.2870256223
 Ne     1.5809856009    -7.0497148266     4.9669137544
 Ne     5.2711482718    -7.2369079309     6.4443511621
          4
Energy: -0.0011633408820578852 Kcal/mole
 Ne     7.0650709482     7.1966779977     0.6546815148
 Ne     0.3282244276     4.0157772351    -6.5619714372
 Ne    -1.7943651848    -2.0228179955     3.2618068029
 Ne     2.8584640055    -2.7294563472    -4.2985312623
          4
Energy: -0.41389292234057506 Kcal/mole
 Ne     2.9970792416     1.8290730011    -2.0741727568
 Ne     0.5283724764     1.6583783661    -3.9991043486
 Ne     0.2100262332     0.8983296773    -0.9931573864
 Ne     1.8492920439    -0.9494945876    -2.9149199210
