          4
Energy: -0.0051969397533011405 Kcal/mole
 Ne     2.3754686338     1.3199251867     2.5647855782
 Ne    -2.4878052948     1.9388327021    -4.7032267910
 Ne    -5.9594597646     4.1923084659     3.0839398929
 Ne     2.7048192537     4.3031803349    -4.2625598962
          4
Energy: -0.08077523387105073 Kcal/mole
 Ne    -3.9943639859    -4.4633289234    -3.0895038872
 Ne    -3.3984181373     7.4869650030    -3.7583762681
 Ne     0.6245128820     2.2062271192    -5.5121607837
 Ne     0.6331611471     5.0411570905    -4.0638629473
          4
Energy: -2.4912450144551037E-4 Kcal/mole
 Ne     6.3300365608     6.5790355697    -3.4664273479
 Ne     2.5413891019    -5.8431523952    -6.4132511397
 Ne     3.5729736412    -4.3770285844     7.1454554836
 Ne     7.2294775508     5.9724244878     6.5482430237
          4
Energy: -0.06878329077167868 Kcal/mole
 Ne    -5.5954927085     5.0370361045    -1.0831472035
 Ne    -3.6026826441     1.1582846903    -4.9492518659
 Ne    -6.3951050060     3.6243345121    -4.7801891014
 Ne    -0.4511402147    -4.2171844573     6.3448183342
          4
Energy: -0.011435802024923926 Kcal/mole
 Ne    -6.8499954649     6.2183177280     0.1664249938
 Ne    -3.8208597301    -6.7861474850    -1.8042292708
 Ne    -6.4026913585    -3.8337530125    -4.3995655293
 Ne     4.5702333212     3.6279070596    -4.7447450743
          4
Energy: -0.0014178694805075103 Kcal/mole
 Ne    -7.1321123016     0.6565943456    -6.2013558699
 Ne    -0.4102793585    -3.4672007684    -6.3311664850
 Ne    -4.7509294393     6.6188670256     1.5846825214
 Ne     4.7273447587    -1.5597297997    -1.1591569968
          4
Energy: -0.06932222277501879 Kcal/mole
 Ne     1.4988416562    -0.3844745516     6.0164879244
 Ne     1.1254402140    -6.5986693288    -5.4546135788
 Ne     7.1985575485    -1.5541333161    -3.1703441128
 Ne     6.2908523466    -2.1530066103    -0.1745010518
          4
Energy: -0.06959529833830597 Kcal/mole
 Ne    -1.6422033665    -4.6653329022     6.4767078102
 Ne    -1.8581485670    -0.0592453902     2.7972407146
 Ne    -0.1678806223     1.5136409078    -2.0092884637
 Ne    -0.9747381546    -3.4691969447     2.0910764814
          4
Energy: -0.07263424513413824 Kcal/mole
 Ne     1.7410645569     4.3806777543    -2.8611444996
 Ne    -3.1040359156     3.3188730118     0.0205903107
 Ne    -2.3391605805     0.1502592703     6.037254E-40
 Ne    -6.8863684659    -2.0141942415     4.2495876586
          4
Energy: -0.41396344969419446 Kcal/mole
 Ne    -2.3395897934     1.9542534403    -3.1310970474
 Ne    -2.9338283221     3.2097073618    -0.3284613167
 Ne    -1.9604030147     0.2615088178    -0.5351579521
 Ne    -4.8307966616     1.0254389297    -1.4943852391
