          4
Energy: -0.005086683987494587 Kcal/mole
 Ne    -2.3454737690    -4.7030636118    -1.4707400273
 Ne     2.9040527732    -4.1645548658     4.7278883057
 Ne    -4.1835768073     6.4570131968     3.2232727139
 Ne    -1.2630389579     0.6181480446    -2.7381435323
          4
Energy: -0.06982011003083356 Kcal/mole
 Ne    -3.2281741240    -3.6951541674    -4.3408959981
 Ne     6.8204098774    -3.7866472002     4.4404975037
 Ne     3.9801151102    -1.8097612590    -3.7009735753
 Ne    -2.5268193427    -2.2667354363    -1.5604741161
          4
Energy: -0.05414388793096833 Kcal/mole
 Ne     4.4917337669    -3.2311966102     6.9612189327
 Ne    -3.8010631978    -5.6147399543     6.0309493309
 Ne    -2.9441194756     7.0920591823     6.1504320594
 Ne    -0.8881781575    -7.3162481964     5.1493480233
          4
Energy: -0.016917607786301147 Kcal/mole
 Ne     1.1984392867     3.0616169447     5.5543688345
 Ne    -2.4123027241     6.8689900137    -2.5045495751
 Ne    -3.7079075435    -2.6983211073     6.4994572184
 Ne    -0.6808877029     6.6666816358     3.5582218917
          4
Energy: -0.006399136522908542 Kcal/mole
 Ne    -6.0411670960     0.8535789536    -0.7006907917
 Ne    -2.9023624495     6.5030849175     1.5073537307
 Ne     1.8283559699    -6.5630796454     2.9392648857
 Ne    -4.9908521705     3.1465286186    -5.5683959637
          4
Energy: -0.05563336422172581 Kcal/mole
 Ne     2.2638015317    -6.9553440906    -0.1702290922
 Ne    -5.5414761925    -3.2783138381    -4.1204443760
 Ne    -1.4496236599    -6.2522794143    -4.4509620056
 Ne     5.5205402979    -5.9228809233    -1.4304532355
          4
Energy: -0.03320075102159401 Kcal/mole
 Ne     3.6477983702    -7.2397852214     6.6911113871
 Ne    -0.6653714706    -0.3701366930     5.3169213735
 Ne     2.5489728751    -1.4262578614    -1.7222134447
 Ne    -0.1507305550    -3.8075893237    -0.1336577307
          4
Energy: -0.0020652239708704736 Kcal/mole
 Ne     2.2884062060    -4.6239177724    -2.0769378692
 Ne    -1.7888493523     3.6022529408     0.5470207893
 Ne    -5.8497749882    -3.1903367895    -4.8025162721
 Ne    -1.3644818458    -4.1372634766     4.0262164220
          4
Energy: -0.13319018996958387 Kcal/mole
 Ne     4.8172652216    -0.1288299929     2.0001882736
 Ne     6.8903313560     2.7395923790     1.1465409797
 Ne     3.9668148326    -0.0363717750    -0.8725607961
 Ne     5.2399663456    -5.1378281870     0.2723861811
          4
Energy: -0.4138628411347422 Kcal/mole
 Ne     5.8987907339    -0.6579620364     1.8836682684
 Ne     7.3832105652     0.8530341441    -0.4170284867
 Ne     4.4368863276    -0.1408941658    -0.8400182692
 Ne     6.7760499615    -2.1989484594    -0.6822055451
