          3
Energy: -0.0025574749910582456 Kcal/mole
 He     5.6052012340    -0.9331547034     6.4376414255
 He     1.3571624654    -2.7109158042     4.9280340101
 He     6.8655335333    -1.1169986933     0.9349987736
          3
Energy: -8.514558422408027E-4 Kcal/mole
 He     3.0909856871     0.0805616768    -0.0360346634
 He    -1.1165391581     3.4835479752    -5.6822553600
 He     1.4264680805    -3.8908307821     3.4836525016
          3
Energy: -2.8773231497181855E-4 Kcal/mole
 He    -5.7941805857     0.5237490817     2.7603773357
 He    -6.4860635374     4.5504309576    -4.3264606404
 He    -0.7840839911    -4.0390876503     3.9680881494
          3
Energy: -0.019398049175140743 Kcal/mole
 He    -4.6993452701    -0.9457983637     0.0316202961
 He    -5.4375264434    -1.7965406552     2.5437711510
 He    -4.0209007686    -5.1976894990    -3.4129768224
          3
Energy: -1.2276941253661815E-4 Kcal/mole
 He     5.8067638140     1.2876114866     4.7212357092
 He    -5.2887611984    -0.2131808593     1.4247157064
 He    -5.3036607940     7.3781485082     0.3845101957
          3
Energy: -0.02004224478518337 Kcal/mole
 He    -3.6014730944    -2.7756920341     3.0900764937
 He     3.3895051321    -5.3959508303    -2.7645536523
 He    -4.6868455147    -1.3634147074     0.8240526164
          3
Energy: -5.985982509394999E-5 Kcal/mole
 He    -3.7742475333     4.5162569529     6.6990541302
 He     5.1873391503     2.4748518999     6.6657541340
 He    -3.3902455238    -3.0539379554    -0.5175664869
          3
Energy: -6.441113059255517E-5 Kcal/mole
 He    -1.2470255532    -4.4545568386     0.5514181885
 He    -3.3312427568     5.6959685302    -3.5531445295
 He    -6.3806490346    -4.4294295913    -6.8926254375
          3
Energy: -0.033918627903044465 Kcal/mole
 He     1.1614930981     0.9357256017    -0.1082369880
 He    -1.3939687605     3.1688172804    -0.1350867455
 He    -3.3892275316     1.2087875335    -0.9690895515
          3
Energy: -0.05999925232880039 Kcal/mole
 He    -0.3525475837     0.3655744608    -0.3754645054
 He    -1.4000260058     3.0268526619    -0.1440956621
 He    -3.0743707486     0.9002059266    -1.1033982395
