          3
Energy: -1.8385656038762124E-5 Kcal/mole
 He    -0.0090338366    -5.9088586998     4.9000976088
 He     2.7489796770     5.0493928838     4.5667775908
 He    -6.3153244336    -6.2902749056    -5.4685090368
          3
Energy: -1.2112737815613058E-4 Kcal/mole
 He     5.7880112524     2.3882699783     2.0439280705
 He    -2.0822994349     0.0291330555    -2.6940458966
 He     4.2087996825    -5.6039621642    -2.9592943985
          3
Energy: -3.2637874112903173E-4 Kcal/mole
 He    -2.7614185567     3.2031569782    -3.1150758851
 He     1.2566369196     1.9206471930     3.9128299088
 He     7.3534116178    -0.7854107282     4.3873561229
          3
Energy: -0.01868370190253136 Kcal/mole
 He    -1.1467842381     4.8678691776     5.1124432314
 He     1.5702679966     3.7570706514     5.8003071344
 He     1.9960593785    -2.3202785374    -5.7987203245
          3
Energy: -2.280267798885207E-4 Kcal/mole
 He     1.1311302336    -6.7560374208    -5.9695303038
 He     6.3624812883    -5.2626000052    -1.8097921682
 He    -0.5404667968     0.6873874129     5.4151897463
          3
Energy: -4.4645408676356513E-4 Kcal/mole
 He    -0.6720023646     1.6404227255    -7.3308269804
 He    -2.9047110842     3.7614225835     5.4572172377
 He    -5.4661683541    -1.1809780352    -4.8441526233
          3
Energy: -4.951152778143983E-4 Kcal/mole
 He    -2.5447866343     3.1645759608    -2.3469762468
 He    -5.0721228684    -2.2265866436    -5.8779365220
 He     2.9350233403    -0.4959587612    -1.4930464176
          3
Energy: -0.003887605333895167 Kcal/mole
 He     3.6075448515    -1.2741509552     0.8965327775
 He    -4.7050710313    -4.5931807345    -1.7260937036
 He     6.1011193390    -3.8057064171    -1.3488480796
          3
Energy: -0.048126406003235894 Kcal/mole
 He     1.9253007451    -6.5530836324    -4.0252498907
 He     1.3271314192    -6.5672159834    -6.9866156861
 He     2.0195052748    -3.8174201729    -6.2615341289
          3
Energy: -0.0599992185295319 Kcal/mole
 He     2.2145874050    -6.3026829357    -4.1614161551
 He     1.0386621836    -6.5866919026    -6.7603766426
 He     1.5554941863    -3.9704925368    -5.7001581826
