          3
Energy: -0.011489633775061533 Kcal/mole
 He     3.5121964786     6.7126852192    -0.2322325808
 He     0.7576671492     5.0927783884     0.9941727712
 He    -0.5976437892    -3.3821338127     6.8186974964
          3
Energy: -1.8571401896673705E-4 Kcal/mole
 He    -5.0358616593     4.5913713096    -7.1823199849
 He     5.0975585424    -1.6024765295     5.2279949664
 He     0.8845870949     3.7965333467     3.4683404927
          3
Energy: -2.959761629362864E-5 Kcal/mole
 He    -0.2594804228     0.7626488271     5.5389735122
 He     7.3236068147     6.2862000773     1.3737682431
 He    -5.5136055182    -1.6190004460    -4.4934504525
          3
Energy: -3.241205924395178E-4 Kcal/mole
 He    -5.8445701411    -6.3159322755    -0.3481691204
 He    -3.0340796972     2.1284825263    -2.9586007470
 He    -2.7527441148    -3.0238187413     4.5720188160
          3
Energy: -0.020707009641958506 Kcal/mole
 He    -2.5699278108    -7.3130961435    -2.2012099592
 He    -2.6819160806    -4.5518896010    -1.1422477942
 He    -2.0410508443     0.4926783744    -0.4389152952
          3
Energy: -0.018587520781869912 Kcal/mole
 He    -1.1638020246    -4.3036197591     4.2850748761
 He    -4.6614172196     3.2373635269     7.0159669606
 He    -3.4950014520    -2.9380683094     4.7916039011
          3
Energy: -4.0592161054229603E-4 Kcal/mole
 He    -0.3154017014     6.2321555289     0.9938400451
 He    -6.4196759553    -7.2916029335     6.8433179339
 He     2.2979146723     1.8428835917     4.4664900280
          3
Energy: -0.02589586295526263 Kcal/mole
 He    -3.1030224719     3.4485724902     4.1368621362
 He    -4.6306849945     4.9597401948     1.2587635289
 He    -4.2639278758     7.1002281296    -1.0066682165
          3
Energy: -0.05304204654154 Kcal/mole
 He     2.7477072843    -1.5433366250    -2.0354305429
 He     6.0149818289    -1.3530454205    -1.6736562123
 He     4.1347047217     0.9240380435    -1.8186388720
          3
Energy: -0.05999936959645928 Kcal/mole
 He     2.8561186253    -1.7691285257    -2.0037026845
 He     5.6869055237    -1.6644326049    -1.5567569680
 He     4.1003885326     0.7062323850    -1.2491916779
