          5
Energy: -0.18194158343478434 Kcal/mole
 He     1.9377901219    -3.6915949004    -4.0481003445
 He     2.4683545566    -1.2549263300    -2.6402282816
 He     0.0236804652    -2.6344068739    -2.1514570342
 He     0.4580430085    -1.2967300709    -4.6653587738
 He    -0.8751455244    -3.8527773244    -4.5633520606
