          5
Energy: -0.006318328729195836 Kcal/mole
 He     5.0800952974    -5.5790188634     0.9207248345
 He     3.7491569766     1.2431340222    -0.4417666399
 He     4.6032300923     6.6494969140     0.6834362030
 He     4.9052637981     0.4397015665    -4.1652716353
 He    -6.8130877236     0.8440157483     7.0872238849
          5
Energy: -0.021567106408943465 Kcal/mole
 He     0.6088136166    -7.1322254150    -1.7267772267
 He     2.6025990864     4.8493588797    -0.0545704889
 He     3.1543491670    -6.9115564479    -0.2547777803
 He    -4.0282488694     1.7241199271    -4.3441429139
 He     5.5233203180     6.2890846912     3.3903405136
          5
Energy: -0.00251294662254983 Kcal/mole
 He    -5.1997302902    -5.5822639994     5.4101537264
 He    -5.6871662094    -4.2022721468    -6.1116518940
 He     6.8433065601    -1.9067275906    -7.1933146419
 He    -4.7686384779     0.8812901979     5.5917997217
 He    -0.4351005007    -0.8093450515     4.7603490502
          5
Energy: -9.48717093116663E-4 Kcal/mole
 He    -2.0914287548     2.3936137664     3.9529936559
 He     6.8162649305    -3.6145070498     2.2442007644
 He    -0.9850864552     6.5282386637    -3.4548913607
 He     2.0223607123    -4.9662507532    -5.1586790203
 He    -2.5701540758    -3.0832213792     4.5556500108
          5
Energy: -0.014645671212014632 Kcal/mole
 He    -2.5033981805    -1.9816566026     4.6463202383
 He    -0.7355403389    -5.6328591357     7.2132656719
 He    -0.7418636459     3.6359923903    -1.8158523212
 He    -4.8023789023     2.4272792664     4.5444237479
 He     0.2474976264     3.9459310089     1.5039710855
          5
Energy: -0.003826975053102424 Kcal/mole
 He     1.8506132065    -2.3189639642    -6.6099356630
 He     3.3526274674     5.8843346637     6.7235576679
 He    -2.3869041537     6.4404506368    -4.9136778201
 He    -5.2479104298     0.7075614363     4.2187335188
 He    -0.1533388327     3.4958698352     5.9252783881
          5
Energy: -0.008168868016999634 Kcal/mole
 He     4.5805056341    -6.0499788270     1.5815579960
 He     0.7275274420    -5.6954019650     2.2374520974
 He    -6.7778885037    -0.5049732601     0.8385156273
 He    -1.7923633569     4.5028934590     6.0215927125
 He    -5.8693770816     3.0650515387    -1.8688494815
          5
Energy: -0.009016588114765458 Kcal/mole
 He    -1.3017809770    -5.9296924779    -4.2380267832
 He     1.5844335137    -1.6355182104    -5.5548716545
 He    -2.3863776830    -4.6135116726     5.1300047811
 He    -5.9397110132    -3.6070720497     4.0639164006
 He     1.4716087328    -2.0686841298     3.3355899453
          5
Energy: -0.021918426714555374 Kcal/mole
 He     4.7754726787    -2.3038304044    -3.8090744645
 He     4.8811239621    -5.0779970703    -4.7925058108
 He    -0.9732372028    -1.6535185889    -1.5676906989
 He     3.2119165083     5.2639503944    -5.8652419857
 He    -1.9556442782    -5.0548266316    -5.1636826720
          5
Energy: -0.18194158343478434 Kcal/mole
 He     1.9377901219    -3.6915949004    -4.0481003445
 He     2.4683545566    -1.2549263300    -2.6402282816
 He     0.0236804652    -2.6344068739    -2.1514570342
 He     0.4580430085    -1.2967300709    -4.6653587738
 He    -0.8751455244    -3.8527773244    -4.5633520606
