          5
Energy: -0.01252292689029806 Kcal/mole
 He    -5.6766190798     0.3662538089    -1.6694801471
 He    -2.4156554438    -4.0768677751     5.9926827731
 He     2.6936610741     7.4585452669     6.5421512075
 He    -5.0269025354     0.7043741960     1.6236563619
 He     6.1264402882    -3.0617166429    -5.9857813002
          5
Energy: -4.505357247198472E-4 Kcal/mole
 He     4.6886705990    -6.4919113112     2.2092146521
 He    -5.3006859368    -4.1858694417    -3.3255267374
 He    -6.9693384621    -3.9988000135     2.6955642873
 He    -6.9937789549     5.1961402403    -7.3471840186
 He     3.1982361300     2.7517925106     4.4554693633
          5
Energy: -0.0013008162789445317 Kcal/mole
 He    -6.7624352392     1.7624838130    -1.5776239725
 He    -2.8375647040    -7.1385600969    -0.8743519176
 He    -1.8681555624    -1.2587324036     3.7675299336
 He     0.6519367185     6.1735744314    -0.5768172962
 He    -5.0615306040     3.0017543898     5.3482252191
          5
Energy: -7.750835173943709E-4 Kcal/mole
 He     6.1739239061     7.2167295519     4.7938137930
 He    -7.3564890136    -7.0926255409     2.6360951906
 He    -4.5997477004    -5.2963575643    -3.1098932077
 He     6.6456988926     2.2272347142    -5.6420345058
 He     7.1616642664     1.7378525775     6.9478716951
          5
Energy: -0.0012918728899397505 Kcal/mole
 He     1.3023235096     6.3882431939    -6.1726125538
 He    -1.3950318271    -6.2803030444    -6.9360415620
 He     7.3401199312     1.4047801413    -1.6829350233
 He    -2.6300410229     5.4870119180     0.3249714544
 He     5.7523674870    -3.4822227387    -0.7128353125
          5
Energy: -5.227664448459844E-4 Kcal/mole
 He    -0.5106613252    -0.3827779716    -1.5155441281
 He     6.2556386406    -5.0224353360    -7.4176995107
 He     5.2025598049     7.1141805756     5.4769539086
 He    -2.9062601138    -4.5149458218     2.5284642454
 He     5.3806808397    -6.7734264324     2.0655960403
          5
Energy: -4.955869429700139E-4 Kcal/mole
 He     7.3960252785    -4.4999994708     6.3937382873
 He    -0.2767131606    -6.0905584223     4.6057237257
 He     3.8678160533     7.3932767976    -0.3715314673
 He    -4.9366609456     2.6369064243    -3.1099518737
 He     3.7739467950     4.5352046715     5.2883862546
          5
Energy: -6.278403127961388E-4 Kcal/mole
 He    -7.0679572997    -5.2074066878    -4.6171607656
 He     4.8310512663     1.1744234141     2.0819739406
 He    -4.0581418809     6.5018071539     2.2664931599
 He     0.6941628365    -2.4047670426     5.5375498421
 He    -0.7612916583     0.8914927944    -2.8352130993
          5
Energy: -0.005234152251984836 Kcal/mole
 He    -1.3759990192     1.8257535902     4.6219966615
 He    -1.3827089731     6.3110657340     5.3610769040
 He     2.8333520277     6.1244753261    -1.1945602216
 He     2.6866618180     2.2295007592     6.9909079303
 He    -0.4314869678     3.5081188258    -7.4545205840
          5
Energy: -0.18192269118048995 Kcal/mole
 He    -0.4584689555     2.1893594930     3.7108175230
 He     0.1712124288     4.7004574570     4.9189792727
 He     1.6381328108     3.8148918197     2.6280121143
 He     1.9774595404     2.4857805986     5.1435009281
 He     1.9054389682     0.9516813439     2.7182237713
