          5
Energy: -0.18199880060328097 Kcal/mole
 He     3.0606220050    -5.6317457459     1.8543904791
 He     1.8407625566    -4.5016310796    -0.4915354245
 He     0.7187937576    -3.9768999224     2.0874967594
 He     3.2175020833    -2.8054418728     1.3558911164
 He     2.8079991498    -3.7542883099     4.0265786357
