          5
Energy: -0.002649987349327683 Kcal/mole
 He    -2.0918255763     1.8880415345     0.8498966917
 He     2.1299441486    -2.7018928985     3.0961544991
 He     2.5823899155    -0.1385052805    -2.8295596882
 He    -4.2045643436    -3.5167817094     2.4164869056
 He    -2.2850537381     4.1376986137    -4.4241073629
