          6
Energy: -4.02830131279312 Kcal/mole
 Kr     6.4053662673    -2.4525534078    -4.0912563013
 Kr     8.2146486863    -4.2496152688    -0.9638465583
 Kr     4.7431416563    -2.2166265392    -0.4147789957
 Kr     6.4362727562    -6.4750075171    -3.8515306443
 Kr     2.9822303314    -4.4574453528    -3.2684873402
 Kr     4.8041677636    -6.2619867473    -0.1238522114
