          6
Energy: -1.2763098915189162 Kcal/mole
 Kr     6.5808214138     3.9349274249    -1.5124409735
 Kr     5.6089349705     4.7771611871     2.3761061399
 Kr    -1.4567066367    -8.5800713652    -7.6317932411
 Kr     4.4320952139     0.2560887900    -2.7711986479
 Kr     1.1188508924    -0.9297630317     0.5018541288
 Kr     6.3345984851    -0.8270604075     1.5885662279
          6
Energy: -0.5958720368352767 Kcal/mole
 Kr     1.9056436802     0.9642850246     4.5305359680
 Kr    -8.5539196916     4.5543071322     7.5007417801
 Kr     3.0761669490    -1.3114200897     7.7284265006
 Kr     2.4423471381    -5.1620463746     1.5998390076
 Kr     7.1563823338    -3.3121142569     8.9347056943
 Kr    -3.3425586915     5.3209225667    -3.5649855149
          6
Energy: -2.989480981931318 Kcal/mole
 Kr     5.8147618992     1.9567541741    -0.0343307678
 Kr     2.6766667842     0.9553077331     2.1334422743
 Kr     5.5292303324    -1.8734097275     1.9675072070
 Kr     5.2274786195     2.8823372365     4.3612213764
 Kr     2.5272813714    -2.2786795189    -0.7536619975
 Kr     2.5733545024     5.1673376154     1.1157872538
          6
Energy: -2.491495712320262 Kcal/mole
 Kr     6.0696419495     3.1046250537    -3.9542021935
 Kr     4.3015061835    -4.7868086629    -0.9033318786
 Kr     7.2891296494    -1.6160574805    -2.1596415049
 Kr     2.8507838966    -3.7726044122     3.2066314524
 Kr     4.6922665236    -0.9881289058     1.1785729518
 Kr     3.3963504902     0.8385445493    -2.0230259253
          6
Energy: -2.8801963089178817 Kcal/mole
 Kr     1.3512213553     3.6639343075     1.0262920213
 Kr     4.1120304529     1.0484678506     2.6533292328
 Kr     7.9383590705     1.9596072766     1.0520965212
 Kr     8.9439295625     4.9523414599    -1.8190268619
 Kr     2.9657068767     1.5398448205    -1.7508267267
 Kr     5.2991396413     5.0146566589    -0.2043248618
          6
Energy: -3.194413452639048 Kcal/mole
 Kr     4.7519213023     6.0253058151    -0.8283453206
 Kr     5.2628153733     1.5778118130     0.3724535716
 Kr     8.4819440004     3.6859236181    -0.2094202063
 Kr     6.1996806792     4.3484329246     3.1070298245
 Kr     6.7372514192     2.9403812363    -3.8100738631
 Kr     8.6405239297     7.7451819684    -0.7689293739
          6
Energy: -3.564333631372863 Kcal/mole
 Kr     5.1952426276     5.9781894356    -8.6835098939
 Kr     3.8287580327     2.7002804836    -6.0514156804
 Kr     8.9120371601     5.7540959367    -7.5890663159
 Kr     5.4778506338     5.9612503676    -4.5673842378
 Kr     8.3619843796     3.1170654422    -4.1310437381
 Kr     7.3025436908     2.1283431067    -7.8817727694
          6
Energy: -3.7481980463563844 Kcal/mole
 Kr     3.6782333673     6.9864331886    -4.3058620755
 Kr     4.4673479219     3.0852152197    -2.7508197495
 Kr     7.8678451533     7.1475018809    -4.1471264090
 Kr     6.2857824695     5.9799897977    -0.6193893091
 Kr     8.5337853670     3.4683272747    -2.6267548328
 Kr     6.6475251107     3.9945508739    -6.0398881492
          6
Energy: -3.8687504962198456 Kcal/mole
 Kr     2.5185430101     4.0341163008    -2.2416192441
 Kr     2.0009480279     2.8703137696    -6.2134611148
 Kr     6.4983581069     4.1103949633    -2.3330423724
 Kr     4.1867448336     0.5003141632    -3.1018868402
 Kr     5.9936723404     2.4325301563    -6.1693949994
 Kr     4.3803132034     6.1049531877    -5.0779753408
          6
Energy: -4.028650591512035 Kcal/mole
 Kr     2.4751766276     4.1258140773    -2.0733555173
 Kr     2.1221987952     2.4793621465    -5.7557983337
 Kr     6.4844482787     4.2258915722    -2.5087995584
 Kr     4.4948627598     0.7295504714    -2.9982606851
 Kr     6.1586670047     2.5688419166    -6.1875452216
 Kr     4.1166380522     5.9529300554    -5.2781964834
