          6
Energy: -4.027992992310984 Kcal/mole
 Kr    -2.0673474280     3.7837777434     4.3176538911
 Kr    -2.1168181552     0.1071095007     2.6324113811
 Kr    -5.3816995146     1.4742102062     4.6455436947
 Kr    -5.4814795442     1.1444856788     0.6241461707
 Kr    -2.1740147397     3.4360792155     0.2892343529
 Kr    -5.4102716357     4.8186835736     2.3227834708
