          6
Energy: -0.40195441978045565 Kcal/mole
 Kr     7.1097765332    -7.6270459947    -4.8348233486
 Kr     4.3339404496     6.3714081164     0.2204214017
 Kr    -1.4921838765     2.9720967637    -5.5357795645
 Kr    -1.1726295721    -7.9730365624     5.7870826623
 Kr     1.8015016586    -6.7617368004     3.2010877216
 Kr    -4.7690785591    -4.3052752346     2.3816489787
          6
Energy: -0.34297505452800586 Kcal/mole
 Kr     5.7570447929    -3.1795646902     6.1428737220
 Kr     8.2478334158    -9.0723962738    -1.4720197285
 Kr    -5.5485616987    -2.8504044408    -8.3101459376
 Kr     4.9036040806     4.5360535281    -2.3820578591
 Kr     7.0125299457     0.6865016566     6.7431774798
 Kr    -3.1389467290     1.5390047271    -1.9567294209
          6
Energy: -0.6580630021581142 Kcal/mole
 Kr     7.6979983848     1.9511272235    -1.9240237493
 Kr     4.5090019113     0.5812089495    -4.2316325360
 Kr    -6.5097633586    -0.4738447069     5.7151265048
 Kr     7.4767131424     5.4766296760     5.4058078954
 Kr    -1.7273594367     6.1409034452    -7.8342124015
 Kr     8.4723632788     0.1056066017    -6.7732380104
          6
Energy: -2.8062853924461986 Kcal/mole
 Kr    -4.2466598357    -1.1501702540     0.9439256306
 Kr    -4.2827698099     5.7847838495     0.0030380911
 Kr    -8.5423209196     2.1213865800    -4.0036058817
 Kr    -6.0479129797     2.6990039940     1.6905580792
 Kr    -7.8761759259    -0.6276007307    -1.3606087317
 Kr    -5.0205444172     1.7152836483    -2.2445430564
          6
Energy: -1.30327136935267 Kcal/mole
 Kr    -5.9826961437    -7.6684520102     4.6950355496
 Kr    -5.0065742004     4.7216879741    -1.9684062597
 Kr    -3.2633391712     8.3036799924    -1.1974479906
 Kr    -4.8317440124     1.6115292504    -6.3975058850
 Kr    -6.5416579728    -1.5820543746    -4.1030939323
 Kr    -5.0127094162     6.5075498592    -5.2677911744
          6
Energy: -3.0103963169073595 Kcal/mole
 Kr    -1.0406808927     3.9503045240    -3.8463592778
 Kr    -3.9671736865     8.5798513168    -2.7582507902
 Kr    -1.9350060064     5.2375883393    -0.0305553561
 Kr    -5.0914169229     4.4901346327    -3.1879787655
 Kr    -7.4640266051     7.0946960498    -0.7896035458
 Kr    -5.8078317196     3.5820510747     1.1324892229
          6
Energy: -2.9672369617908543 Kcal/mole
 Kr    -1.2185868053     0.7061610121     1.2954255608
 Kr    -2.7339572433     7.9345759359    -0.7000094556
 Kr    -2.1210434737     4.6331019542    -3.1011718358
 Kr    -4.1250203153     4.3282241522     0.0656654125
 Kr    -0.1279761216     4.1156343922     0.2179258933
 Kr     0.6321718807     7.5969919204    -2.5370678482
          6
Energy: -3.5652870920192785 Kcal/mole
 Kr    -3.3266117066    -0.2185994222    -0.0582662599
 Kr    -4.4998033261     5.6765113727     1.8436265239
 Kr    -1.2858584353     1.8884711931    -2.8593786578
 Kr    -4.9552920641     3.1052255376    -1.0526967623
 Kr    -5.7577228433     1.5048871912     2.5328801121
 Kr    -1.6158583315     3.2176142521     1.0784993121
          6
Energy: -3.781092871163326 Kcal/mole
 Kr    -1.9634144857     0.6931836445    -4.0005246670
 Kr     3.5453015069     4.6762600652    -2.9580842907
 Kr     1.6127250356     2.4634917040    -5.6676194699
 Kr    -0.4422023621     4.4181876673    -2.7489415126
 Kr    -1.9576112235     1.6804161143    -0.1421343600
 Kr     1.4915003210     1.0207014167    -1.9949563107
          6
Energy: -3.8992716872261717 Kcal/mole
 Kr    -1.7620031505     0.8503996255    -4.1125409653
 Kr     3.6216917318     4.4479234207    -2.7359908277
 Kr     1.5948741020     2.4944511205    -5.6910335472
 Kr    -0.4422023621     4.4181876673    -2.7489415126
 Kr    -1.9038877184     1.6903589303    -0.1416109119
 Kr     1.6605033973     1.0031396228    -1.9180957933
