          6
Energy: -3.8992716872261717 Kcal/mole
 Kr    -1.7620031505     0.8503996255    -4.1125409653
 Kr     3.6216917318     4.4479234207    -2.7359908277
 Kr     1.5948741020     2.4944511205    -5.6910335472
 Kr    -0.4422023621     4.4181876673    -2.7489415126
 Kr    -1.9038877184     1.6903589303    -0.1416109119
 Kr     1.6605033973     1.0031396228    -1.9180957933
