          6
Energy: -5.503405067250739 Kcal/mole
 Xe    -5.2658361952    -7.0773798711     4.7711695002
 Xe    -9.2114319626    -5.1827984720     4.2541157752
 Xe    -3.3584756356    -3.6337447535     2.8116788359
 Xe    -5.9921898180    -3.0176019889     6.2842951992
 Xe    -7.3059219109    -1.7402805888     2.2696819900
 Xe    -6.5924767814    -5.8064096064     0.7774219143
