          6
Energy: -5.502502084535072 Kcal/mole
 Xe    -1.6284683850    -8.4985116461     7.2457798551
 Xe     4.4852428564    -8.9783169013     8.3861829572
 Xe     0.9160657020   -11.3669336092     9.4042609383
 Xe     1.7833829228   -10.3743993640     5.1972747015
 Xe     1.0836977612    -7.0874783755    10.3945643235
 Xe     1.9261919734    -6.1032384967     6.2225145596
