          6
Energy: -0.1264680670121006 Kcal/mole
 Xe     1.4839485562     6.9161775171     6.0603835001
 Xe     3.7133054726     2.0872153173     9.8336025773
 Xe     7.2997845640    -2.4356569695    -5.8587332296
 Xe     8.6141368702    -5.4847774071     6.3357190099
 Xe    10.4653170868    -9.1987220967    -4.2610770492
 Xe    -9.2429926534    -5.4851926801     6.5671927627
          6
Energy: -0.5086037021013363 Kcal/mole
 Xe    -2.0815051546    -7.6722169643    11.4870212353
 Xe     3.8440111292    -8.1336756447     6.3798271741
 Xe     0.6677165587     1.2072749662    -3.2151284004
 Xe     4.4535458024     5.2795408713     8.3297277432
 Xe     6.4722864825     1.5961942326     3.8525506096
 Xe     4.2945547665    -9.3409248050    10.2565034066
          6
Energy: -1.9476837148864237 Kcal/mole
 Xe    -4.1513204044     3.5486508612     5.0101372055
 Xe     5.6847730893     0.2567552016    -3.9657815101
 Xe     0.2449720347     2.7013456867    -4.4463333736
 Xe     4.2890097058     3.7706002355    -7.3590761918
 Xe     1.8569995730     4.1278854716   -11.0155142029
 Xe     0.7227685619    -0.3934395610    -8.8116568373
          6
Energy: -0.25348486901083106 Kcal/mole
 Xe     2.9392412617    -5.4915051326    -5.2944960224
 Xe     9.0662245673     2.5711886491    -4.6610003193
 Xe    11.5790475299     8.0035229713    -7.3977792246
 Xe     9.5857603327    10.1610375440     6.9626165349
 Xe    10.6818686364    -0.3522298252    -2.4534639033
 Xe   -10.3217717190    -6.5350364156     8.4896760626
          6
Energy: -2.8676339298581515 Kcal/mole
 Xe   -11.2575349493     3.4647023491     9.1003408455
 Xe    -7.4492170393     0.2055787854     7.0139747216
 Xe    -4.8601355649     8.3635232927     3.7951984227
 Xe    -6.0563242758     1.9069588457     2.2142836877
 Xe    -2.7176172528     4.3048618174     2.7721977353
 Xe    -6.9036377654     4.2229423204     6.0087794114
          6
Energy: -2.760757835928256 Kcal/mole
 Xe    -5.7471894640     1.1267903557     6.5266597308
 Xe    -5.9457517675    -1.4075559641    -0.5992246974
 Xe    -5.9966677572     2.6519180025     2.4775838855
 Xe    -3.5913257522    -1.1351403284     2.9284307328
 Xe     2.8448510736    -6.7365132202    -6.6665615006
 Xe    -5.4163348307    -3.2170920540     5.8932833619
          6
Energy: -4.644096091671198 Kcal/mole
 Xe    -4.5492384359    -5.3468176779     1.6703387567
 Xe    -3.8636138331    -6.8278087729     5.8669675181
 Xe    -5.7136452568    -0.7548372797     1.1210212785
 Xe    -2.8624351721    -2.0770811557     4.6590597179
 Xe    -6.6392347208     0.6756905811     5.1195235962
 Xe    -7.5066295216    -3.5007780596     4.0593820142
          6
Energy: -4.395126777353755 Kcal/mole
 Xe    -1.6658706807    -3.1850563028     1.4800420424
 Xe    -5.6902928162    -4.9071845310     5.1269859720
 Xe    -5.3260196284    -4.5190050167     0.0836342796
 Xe    -5.1881958763    -0.6379811588     2.8778059490
 Xe    -9.0403958219    -2.7070683835     2.7524526762
 Xe    -8.6569917865    -7.0507594755     1.8422296777
          6
Energy: -5.339753293522897 Kcal/mole
 Xe    -5.4153931880    -7.1003480972     4.8712374663
 Xe    -9.1726693984    -5.2039043340     4.2531177745
 Xe    -3.3616355967    -3.7188346134     2.8606284610
 Xe    -6.2071730460    -3.2066443273     6.6340952816
 Xe    -7.2675385697    -1.8106209919     2.2954761232
 Xe    -6.4798492835    -6.0110543042     0.8035812552
          6
Energy: -5.503405067250739 Kcal/mole
 Xe    -5.2658361952    -7.0773798711     4.7711695002
 Xe    -9.2114319626    -5.1827984720     4.2541157752
 Xe    -3.3584756356    -3.6337447535     2.8116788359
 Xe    -5.9921898180    -3.0176019889     6.2842951992
 Xe    -7.3059219109    -1.7402805888     2.2696819900
 Xe    -6.5924767814    -5.8064096064     0.7774219143
