          6
Energy: -0.0487828669832989 Kcal/mole
 Xe     2.5067957301     7.0074981706    -7.3306160865
 Xe     5.8667997249    -2.4069257438    -3.7893166570
 Xe     7.7319979726     2.5548947418     7.1445658627
 Xe     0.7907323677    -7.1663015340     5.0605356009
 Xe    -7.4626956474     4.8245988751     0.3778572872
 Xe    -0.6469132402    -7.3837234504    -3.8857339140
