          3
Energy: -0.25529669536105504 Kcal/mole
 Kr     1.8190027016     5.6447358897    -2.4070912918
 Kr     5.2656717836     1.7237826865     3.3898590120
 Kr     2.8352853812     4.6522210641     0.9259485413
          3
Energy: -0.007437183538245372 Kcal/mole
 Kr     4.8195671628     6.6943281920     4.4562178806
 Kr     0.0554689289    -5.5771430400    -8.1795620241
 Kr    -3.1474288614     3.6718816609     3.3908536016
          3
Energy: -0.055541804483676196 Kcal/mole
 Kr    -2.0864300326    -5.8474318716    -2.0365223499
 Kr     1.7883830247     2.4031468668     2.8196216098
 Kr    -3.8685008694     2.7074477026     0.2659851102
          3
Energy: -0.23240923023673657 Kcal/mole
 Kr    -2.4003728983     0.1313951274    -3.4735804809
 Kr    -4.0757549114     2.5516623471    -6.2420520929
 Kr    -2.5567201722     0.3917931363     0.0907722594
          3
Energy: -0.0011429904424576798 Kcal/mole
 Kr    -3.5997936939    -5.1587294249    -0.3150483785
 Kr     3.1364946069     3.9898373504     7.2959098187
 Kr     1.5046004399     5.7103236750    -7.1528314448
          3
Energy: -0.5115510906304216 Kcal/mole
 Kr    -2.9614566778     3.0736610735     5.8135584308
 Kr    -5.5663342527     3.3194640479     0.8700106421
 Kr    -2.7163988163     0.2284543936     1.4142462915
          3
Energy: -0.6628477426511561 Kcal/mole
 Kr    -2.4831477853    -1.4133319299    -0.0238209136
 Kr    -3.6403197089     2.2756903817    -1.7441102708
 Kr    -1.8695242184    -3.5690493973    -3.3959115939
          3
Energy: -0.9000553381581755 Kcal/mole
 Kr     1.5761681372     0.0674670594    -4.8531260708
 Kr     2.2529674074    -3.0284748119    -7.8459427857
 Kr     5.3042833613    -1.6722601771    -5.6708627971
          3
Energy: -0.850250595721315 Kcal/mole
 Kr    -5.7522351019    -3.6602152142    -6.8352055372
 Kr    -4.1081188879    -7.7828201060    -7.1036989916
 Kr    -7.8184610846    -6.6223459697    -5.0319771448
          3
Energy: -0.9509981900305724 Kcal/mole
 Kr    -5.7103599555    -3.9649704728    -7.2825821156
 Kr    -4.2915156259    -7.7746309564    -7.1723056081
 Kr    -7.8674917114    -6.8850715156    -5.4503730782
