          3
Energy: -0.04018806133037223 Kcal/mole
 Kr     4.4340292474     2.0088459605     2.2250615164
 Kr    -5.2739316471    -5.7384214484     0.2076116967
 Kr     5.3301337805    -4.4048544677     2.2696827922
          3
Energy: -0.36298564821596974 Kcal/mole
 Kr    -0.8013722829    -4.0826918978     0.7019857527
 Kr    -3.9145736756    -4.9883518219     3.2315473568
 Kr    -1.1871236678     2.3488601391     1.7279125037
          3
Energy: -0.07009868139221978 Kcal/mole
 Kr     7.5104662661     2.3388781166    -6.1205787267
 Kr    -0.9044283739    -7.0096458497    -1.3454192172
 Kr     3.9002121406     2.3531418706    -1.5153395770
          3
Energy: -0.0068547687310911215 Kcal/mole
 Kr     7.8191670998    -3.8286108716    -7.9256618443
 Kr     7.3114615634     6.3058680626    -4.2488554924
 Kr     6.2985115096     2.6508812010     4.1672348809
          3
Energy: -0.3321448375442406 Kcal/mole
 Kr    -8.0443798671    -0.1348197701     7.4926132137
 Kr    -6.7413825403     1.2320858046    -3.1286650653
 Kr    -7.4093978104     1.3171461445     1.0902480232
          3
Energy: -0.29721244913998385 Kcal/mole
 Kr     6.7279848407    -5.7679769692    -0.1711879839
 Kr    -1.2188342819     1.7643446937    -6.1099260694
 Kr    -0.0790208230     2.9917698878    -2.1710870228
          3
Energy: -0.3154649944536427 Kcal/mole
 Kr     2.8468449615    -2.9335665571    -7.4167810857
 Kr     5.3182751733     2.8520613346     6.1640269567
 Kr     4.9786468371    -6.3334278531    -7.6014592685
          3
Energy: -0.9131222444910689 Kcal/mole
 Kr     2.9709140135    -2.7225883140     2.1644734601
 Kr     0.3780207606    -6.0468856402     2.6934600052
 Kr     3.9122904179    -6.0105500877     4.3776670542
          3
Energy: -0.9061446795887649 Kcal/mole
 Kr     4.7659103675     6.1827662925    -4.4094199756
 Kr     4.2327668592     7.4222683606    -0.6751424881
 Kr     8.0584204823     7.9572975735    -2.6821658514
          3
Energy: -0.9509887399694729 Kcal/mole
 Kr     5.0717331556     5.7011352875    -4.5023415944
 Kr     4.6150000456     6.9648797540    -0.6617622574
 Kr     7.8003860605     8.2317323767    -2.8503953326
