          5
Energy: -0.1819863412855265 Kcal/mole
 He    -0.9247737508    -0.8205496317    -3.0239162182
 He    -3.4225545554    -0.1946344829    -4.2854112217
 He    -3.3271004902    -0.7555569351    -1.4700374226
 He    -1.0614457685     1.1810723728    -5.0684801842
 He    -2.1910718553     1.6850655659    -2.4864766041
