          5
Energy: -0.1820325951119614 Kcal/mole
 He    -2.4470779860    -3.2819820751    -1.3555949217
 He    -0.9786693293    -4.3441498707    -3.5939292070
 He    -0.5699516603    -1.6403328746    -2.7650991792
 He    -1.4814158997    -5.9676610374    -1.2722367139
 He     0.3646070482    -3.7894963856    -1.1066154931
