          5
Energy: -0.1819908855736017 Kcal/mole
 He     3.1537720811    -3.2063578835     3.6445135807
 He     1.5881644995    -1.7418174216     1.7529392404
 He     1.3874626570    -1.1047621758     4.5238715986
 He     1.6470509383    -3.5065662928     6.0845273255
 He     0.3133731504    -3.5757616092     3.5474298480
