          5
Energy: -0.021318435376407957 Kcal/mole
 He     7.0873901045    -3.9663386574     7.2472318699
 He    -6.9743587014    -2.9053744195    -0.9133870056
 He     0.1895725815    -3.4166375517    -4.5657932796
 He    -6.7808881498    -0.1547492827    -2.5633058678
 He    -4.9920328901    -1.7571623788    -5.8771341679
          5
Energy: -0.008431171749515898 Kcal/mole
 He    -0.9387227103     3.3637686754    -4.6668417030
 He     5.2997616153     0.7768068261    -3.2450941927
 He    -2.8843389229     0.9009604262    -6.6960549450
 He     2.0685241351     6.0476273965    -0.2934866465
 He     2.8417731366    -7.1740537650    -1.8833226700
          5
Energy: -0.014096582184388686 Kcal/mole
 He     2.1809238398    -1.9235621126     0.9892042462
 He     0.0724422784     1.4408635378     2.7398279677
 He    -0.1639263616    -1.5383064652    -5.0641724273
 He    -4.8909864024    -1.2643771856    -1.7409724048
 He     0.9532383617     4.0292743607     5.0151925355
          5
Energy: -0.01000057120279498 Kcal/mole
 He     2.6325694724     4.8841933511    -2.6201610896
 He     0.9020815707    -1.7845294139     6.4998087050
 He     1.8574280095    -6.9571213527     4.0232549707
 He    -0.7157570917     0.2445956069     4.0287413663
 He     2.7625222384    -4.8677209429    -4.3157310067
          5
Energy: -0.022135780451139245 Kcal/mole
 He     1.0290885845     2.3524631640     3.7464381451
 He    -6.9029540226     6.9200683043    -6.9705094727
 He     0.8289536175     3.8236073771     1.1720575804
 He    -5.3879607096     4.0366228852    -3.8365676798
 He     6.9575535353    -1.7366321940     3.9174379612
          5
Energy: -0.0013751972344159113 Kcal/mole
 He    -1.8213679647    -3.3122129546     5.5528361243
 He     2.3185093001    -6.3473443652    -2.5111414060
 He    -5.7479669569    -5.5184012158     2.3497486008
 He     7.0885853786     1.9803737364     4.5845189442
 He    -0.9188757985     1.1003786774     1.1233620688
          5
Energy: -0.00809261655890557 Kcal/mole
 He     4.7410086198    -1.9604025312    -0.9665807163
 He    -6.1349935760    -4.7477246088    -3.7938902374
 He     5.6453900342    -4.5349548231     1.5267626923
 He     0.0300963023    -5.2497280014     5.7972766711
 He     7.3705148744     4.9677174414    -5.6819826524
          5
Energy: -0.053408930055558995 Kcal/mole
 He     4.4298636078    -2.9444951481    -5.9769460948
 He     6.9070107704    -4.0708827057    -4.3425950392
 He    -3.4527550235    -5.5275078492     5.8299468696
 He     1.8603821177    -3.9823054751    -6.0272971905
 He     6.8652191067    -5.7917100694    -7.2966334677
          5
Energy: -0.12671809141093432 Kcal/mole
 He     5.2654524359    -3.8502566152     1.6714203790
 He     1.9074139074    -4.6287918636    -0.0459964142
 He     3.7477012809    -5.2145655117    -2.2812336933
 He     1.1130302291    -3.1562758461    -2.5279633593
 He     3.6188080904    -2.4039259340    -1.0628401148
          5
Energy: -0.1820269029822923 Kcal/mole
 He     4.8555535017    -4.4703031075     0.4968748849
 He     2.0550166500    -4.6101582646    -0.0041873862
 He     3.9314093615    -5.2276653234    -2.1012529507
 He     1.5278107889    -3.7918613912    -2.6866296888
 He     3.6126710283    -2.5190116586    -1.2073579698
