          5
Energy: -0.1820269029822923 Kcal/mole
 He     4.8555535017    -4.4703031075     0.4968748849
 He     2.0550166500    -4.6101582646    -0.0041873862
 He     3.9314093615    -5.2276653234    -2.1012529507
 He     1.5278107889    -3.7918613912    -2.6866296888
 He     3.6126710283    -2.5190116586    -1.2073579698
