          5
Energy: -0.02574380921992479 Kcal/mole
 He    -0.2333464994     0.5178824798     4.5939849748
 He     2.7856623381    -0.7246256796     4.6117809991
 He    -0.3484331886    -7.0135319768    -1.2644899318
 He     3.4164817663    -7.4856895426    -0.4964763625
 He     1.3488124289    -6.3441872678    -5.0058767901
          5
Energy: -2.1458086162752982E-4 Kcal/mole
 He     2.5541561401    -2.7420787545    -3.8480912743
 He    -7.4521965562    -4.6166026394    -0.4701496399
 He    -2.8097385355     3.8759715272    -6.3984984600
 He    -4.8561915147    -1.8523301926     6.2298836357
 He     1.5098989049     6.0590826380     6.4546879603
          5
Energy: -0.021145247039629667 Kcal/mole
 He    -2.3915113864     6.9137723458     3.8611597326
 He     1.3582338549    -0.2063917932     0.0912088400
 He     3.6324812550    -1.7807769912     0.1239918215
 He    -0.6868500804    -4.9179092741     4.1051635920
 He    -7.0387667549     6.4410375427     5.0879509967
          5
Energy: -0.020612358613033694 Kcal/mole
 He    -3.8009698162     5.1283541476    -4.7206019687
 He    -6.7298380501    -0.4514170064     0.2308487673
 He    -1.9766658174     3.1644317493    -4.0171118139
 He    -2.1430691710     7.0504919829     5.9618805360
 He    -0.3504482922     3.1527866073     3.0105665802
          5
Energy: -0.026159364370975834 Kcal/mole
 He    -7.0355712561    -7.1060121487    -7.4808797379
 He     5.3165419441    -6.9787198236     3.8870398553
 He     2.0900782775    -4.4845263268     2.1027118463
 He     4.2959361598    -4.7466215399     5.5851386378
 He    -1.9803949722     4.4109718448     3.2674339329
          5
Energy: -5.172517135213896E-4 Kcal/mole
 He     4.8054733616     4.4103463596     1.1952779541
 He     6.3698950262    -6.5180386833     3.8006702671
 He    -1.9081796832     3.3233300271    -0.8735837420
 He    -3.5434478281    -2.3475137558    -4.8383506028
 He     4.2647803774    -4.4086417811    -4.8296558857
          5
Energy: -0.0029841832962523053 Kcal/mole
 He     6.4658305041     1.1664571773     0.4513105709
 He     5.0657280415     5.0294690177     2.1689402837
 He    -6.2164879608     2.6455911054    -2.2751856306
 He    -5.7769670490     6.2645162114     4.0637258744
 He    -2.8454096159    -5.3875314006     0.9576377320
          5
Energy: -0.0196095961035004 Kcal/mole
 He    -1.8807951545     7.4013349903    -7.3290916322
 He     2.3588898447    -3.7442336600     5.2825422256
 He    -3.3123715425    -2.6207799513     6.3434089912
 He    -1.5042762535    -6.1999470811    -3.3501125017
 He    -3.6906857005     6.8695617473    -5.0075646422
          5
Energy: -0.15919878957143016 Kcal/mole
 He    -2.4220193703    -3.4200480265    -0.8112249271
 He    -0.4928912730    -4.6667204837    -3.7503805671
 He    -0.8414583140    -1.9581999992    -2.8330733584
 He    -1.5437615390    -5.9231322827    -1.3905166503
 He     0.4054354511    -3.6421486369    -1.1996283695
          5
Energy: -0.1820325951119614 Kcal/mole
 He    -2.4470779860    -3.2819820751    -1.3555949217
 He    -0.9786693293    -4.3441498707    -3.5939292070
 He    -0.5699516603    -1.6403328746    -2.7650991792
 He    -1.4814158997    -5.9676610374    -1.2722367139
 He     0.3646070482    -3.7894963856    -1.1066154931
