          3
Energy: -0.00643985422120181 Kcal/mole
 He     2.8710455899    -7.2770734824     3.0443658410
 He    -4.1559946354     6.0331117426     3.2686935609
 He    -7.2844382548     4.3372871343     4.6870000543
          3
Energy: -0.005687727590240929 Kcal/mole
 He    -7.0220073325    -5.6479923717    -1.9658829700
 He    -0.2515191678     0.4560296746     2.3860981188
 He     3.5407359468     1.4471478516     2.5096282323
          3
Energy: -4.575008431710695E-4 Kcal/mole
 He     0.3860842986     1.6917973529     2.1079852831
 He    -0.3827106889    -1.4317220086    -3.5734157013
 He    -4.0958922055     6.9972620570     3.9268551080
          3
Energy: -2.7656878227630336E-5 Kcal/mole
 He     3.6954535150     7.3978060625    -5.5185495339
 He    -5.2822224135     3.4039103235    -6.9720691971
 He     5.7710048983    -6.7423083606    -4.8059549867
          3
Energy: -3.4497687774319316E-4 Kcal/mole
 He     6.5319079553    -0.2897984958     4.2872769170
 He    -2.6645019452     2.9558024175     4.9180423676
 He     7.0641351031    -5.5379193975     0.6193005143
          3
Energy: -1.7429952916001527E-5 Kcal/mole
 He     5.3437635517    -1.0451440058    -0.7837616570
 He    -5.0275276450     2.4224307368    -6.0508301821
 He    -6.3928308784    -6.9352895351     1.7564006860
          3
Energy: -2.495910146975584E-4 Kcal/mole
 He    -5.2727978437     7.2341200814    -2.6688265732
 He    -3.2757472445    -6.2010835053    -1.5156541753
 He    -7.1248017820    -0.0806430745    -0.6109756260
          3
Energy: -8.595618103425505E-5 Kcal/mole
 He     3.0193428121    -4.5388246940     5.3993409814
 He    -5.2936545021    -3.9997867747    -4.2092204160
 He    -4.3186714801     2.3285074800     1.0891749013
          3
Energy: -6.178270337316694E-4 Kcal/mole
 He     5.2468736060    -6.5471191782    -5.6532334135
 He    -6.5698494634     4.2622616057    -2.7694494621
 He    -3.3370431468     1.2388805599    -6.4518875758
          3
Energy: -0.05999916618757986 Kcal/mole
 He    -3.8113064712     0.8544484014    -2.4679366854
 He    -4.6045538379     3.4903353542    -3.2749516367
 He    -2.9930135600     1.8850127470    -5.0194710927
