          3
Energy: -6.25258164968936E-4 Kcal/mole
 He     0.8226838760    -2.9425601871    -6.1028591762
 He     1.7818651473    -1.6960572764     4.5890625862
 He    -1.7188492784     0.6066643992     0.4080565830
          3
Energy: -1.649336627740257E-4 Kcal/mole
 He     6.5010456875    -1.9032277080     0.0873956491
 He    -1.4004745181     1.3463239700     1.7496194955
 He     1.1732758465    -3.5503242139    -5.7646486361
          3
Energy: -7.952899029706167E-4 Kcal/mole
 He    -4.0572715360    -3.0373449057     4.8191490771
 He     7.2101000437     0.9533936442    -5.2545992706
 He     1.3125134623    -4.2741841076     4.8620238780
          3
Energy: -0.0012956100319391308 Kcal/mole
 He     0.3225992285    -3.6229025209     3.8560590770
 He    -2.7624882221    -7.2888607634     2.1804299450
 He    -1.4230966689     4.4913199940    -4.3185854005
          3
Energy: -4.310962916079862E-4 Kcal/mole
 He    -4.7357523278     3.5103798088    -3.6993599088
 He     0.4704405756    -4.3327457188    -3.5415574129
 He    -3.2510743573     6.4176325339     1.5643744115
          3
Energy: -0.0032979799440940173 Kcal/mole
 He     0.3091097972    -2.0988752057     4.7315059701
 He     2.5891887487     3.9332062639    -0.2855827598
 He     5.6740716421     0.9711069627     0.5919601187
          3
Energy: -7.52406144455265E-4 Kcal/mole
 He    -5.3821581940     5.9234996675     0.6962185560
 He     2.0110453815     2.9278128012    -3.8518740793
 He    -3.9094555531     0.7539038483    -2.2180772940
          3
Energy: -0.0022581361405227367 Kcal/mole
 He    -1.2637845867    -3.0916242494     7.4335242507
 He     3.0822454899    -1.9721506703     6.2521451150
 He    -4.9626856023    -2.5472209764     0.0092109655
          3
Energy: -4.974052028151027E-5 Kcal/mole
 He    -5.3261248182    -6.9398025832    -4.9442623858
 He     3.3807064998     0.9861918412    -0.2030524049
 He    -3.0988154759     5.4598034734    -4.7987836920
          3
Energy: -0.05999960238568093 Kcal/mole
 He    -2.7108519933     1.9510963284    -1.4700852060
 He     0.0829062872     2.5871682688    -1.3388479590
 He    -1.7528214677     4.4350011077    -2.5373481028
