          6
Energy: -0.08913583204163196 Kcal/mole
 Ne    -0.0423862134    -0.3869065539     1.6742031829
 Ne     4.6466465955     1.8107065557     1.6050350818
 Ne     2.9500332971    -4.5409882496     4.9785044221
 Ne    -4.3508493342     1.4410912937     3.5646755625
 Ne     4.2409797223    -2.6139317389    -3.3223723807
 Ne     6.3289363070     4.4464945144     0.9241747894
          6
Energy: -0.08779379576139446 Kcal/mole
 Ne     7.0825854939    -4.3595466221     6.6311309290
 Ne    -1.6100451468     7.4779594144    -0.3683620341
 Ne     2.3962514926    -2.1503738908    -0.3837928134
 Ne    -4.5158460803     7.2326185715     0.0663162379
 Ne    -1.0011139819    -4.3527609184     2.4381729034
 Ne     0.8489573482     6.9643842517    -3.8320629725
          6
Energy: -0.07644977531696603 Kcal/mole
 Ne     6.7872394895    -2.7401381561     2.3663591890
 Ne    -2.7093011219    -2.6853874862     3.8190970813
 Ne     5.4964283802     0.3450017555     5.8263867019
 Ne     1.1355790295     2.1841857628    -7.1842457912
 Ne     1.5804180441    -3.0645934590    -4.9328819236
 Ne    -3.3625536419    -4.8190347766     6.2894795518
          6
Energy: -0.012293544721979783 Kcal/mole
 Ne    -1.3107753655    -1.3952884874     6.2341195049
 Ne    -2.3175737970    -1.3317043412    -6.5960090255
 Ne     5.3799123665    -3.8835528695    -6.4775681982
 Ne     2.0973635818     0.7761202574    -4.8329740192
 Ne    -6.2637573694    -5.7474646555     0.3182534646
 Ne     0.3221737276     3.8862464227     1.2261315158
          6
Energy: -0.11846888677024217 Kcal/mole
 Ne     2.3327474699    -3.6522684466     4.5313122277
 Ne     7.4204135339    -4.7471778039    -0.7409145234
 Ne     3.6121545294     1.2979382091    -4.4215304308
 Ne     5.7516283880     5.7646148621     4.5882982918
 Ne    -0.4740395183    -3.0932525317     6.1425166712
 Ne    -2.2434205633    -3.3250626442     2.9471620263
          6
Energy: -0.10449606292969717 Kcal/mole
 Ne     3.7014448601     5.1487557947     4.3093493884
 Ne     0.4979312597     6.2000379022    -1.8435774176
 Ne    -0.6848949378    -0.2240696078    -1.4537840164
 Ne    -6.2043673591     5.1732644666    -1.1939698760
 Ne     1.9171328616     4.3983843505     0.5941528904
 Ne    -2.6057178163     3.1003624032     3.2023890193
          6
Energy: -0.0780439210759612 Kcal/mole
 Ne    -4.3511744734    -2.9093642679    -3.8307161237
 Ne    -2.6714036279    -4.6875347017    -5.7430055051
 Ne    -2.4625268586    -4.6813625956     0.8645545694
 Ne     5.0076170787    -1.7467917707    -6.2566476370
 Ne     4.1073798478    -6.1060143335     5.8468259260
 Ne    -0.7773312224     2.7179509469     1.4261523971
          6
Energy: -0.06969741702802924 Kcal/mole
 Ne     4.3662165883    -4.9879505686     1.6184112761
 Ne     5.7127178549     7.4644461286    -0.9606152611
 Ne    -0.4545281888    -0.0131644394     1.3990394877
 Ne    -2.2757330724    -5.0056593487    -1.0156885130
 Ne     5.9293115095     1.4093992712    -0.8928906687
 Ne    -4.7450822635    -6.4452821400     0.8008384225
          6
Energy: -0.5192189248738192 Kcal/mole
 Ne    -0.8720946371    -0.2659914100    -3.3357718575
 Ne    -0.7620244390     2.1400920297    -1.4648759327
 Ne     2.3425375714     0.4195731990    -2.7880906682
 Ne    -0.9476124104     4.2384774605     1.0865292300
 Ne     1.1434998002     0.9288789731     2.1300241234
 Ne     0.1875707415    -0.8031134370    -0.1317533009
          6
Energy: -0.8482857368395051 Kcal/mole
 Ne    -0.6498009243    -0.3263197912    -2.8451606929
 Ne    -0.0955659479     2.4071165705    -1.5023140825
 Ne     2.1994264608     0.3361530873    -1.8009096961
 Ne    -1.0388868626     2.4024258595     1.4559469517
 Ne     1.9767663010     1.9741860008     0.8178926321
 Ne    -0.0959547082    -0.2748028816     0.1930407186
