          6
Energy: -0.021413587908409432 Kcal/mole
 Ne    -4.4248414344    -6.9865536044     6.6093129625
 Ne     1.3314483485     2.4277016354     5.2133864662
 Ne    -6.4464677849     1.2862001419    -3.7982640640
 Ne    -6.8772609054     4.4317377786    -7.2161888432
 Ne     2.2723574147    -5.8359705028     3.1605099181
 Ne     2.2151066601    -3.3946978405    -1.1976298893
          6
Energy: 0.10231657465248326 Kcal/mole
 Ne    -4.0162166432    -0.3850880775    -6.8665495706
 Ne     6.2076466820     3.5890872247     1.5522250263
 Ne    -6.8706933888     0.1713999677     0.8251271718
 Ne     1.0431159366    -6.0505986991     1.3129262039
 Ne    -6.5886300965    -0.5899667448    -6.2073756004
 Ne     3.0687469516     5.6471877357    -6.6755989046
          6
Energy: -0.059959528231436604 Kcal/mole
 Ne    -4.5623694466     3.6951317573    -6.5210379822
 Ne     3.0022661533     6.0309202991     1.0038895309
 Ne     7.1263212672     1.2037776103    -4.0584736971
 Ne     2.5501648271     2.3748446867    -0.8955462539
 Ne    -0.7626974193     2.0425553986     1.3282094200
 Ne    -4.1188885902    -6.9551367241     4.2706491782
          6
Energy: -0.008152390952218636 Kcal/mole
 Ne     0.6575414285    -3.0083426160     1.2180984599
 Ne     0.2063447430    -6.4679668098     5.2623303685
 Ne     6.1440006748     3.2093715981    -6.8431549679
 Ne    -7.3705463867    -1.1007194736    -4.7487363775
 Ne    -1.1861684033     5.3070230118    -0.1239468065
 Ne     5.2711130669     1.7391476182     2.9705320813
          6
Energy: -0.039823480694061185 Kcal/mole
 Ne     6.0338320598     5.4012287428     0.9958381628
 Ne     5.0630774055     0.3498039909     1.0135924629
 Ne    -5.8191938025     1.6504776658    -3.1396406858
 Ne    -2.4723154959    -4.6954918339    -3.7055731099
 Ne     2.5050232386     6.4042880351     6.0924312248
 Ne    -3.3948011974     2.8702975681    -3.9714573116
          6
Energy: -0.015343432564140464 Kcal/mole
 Ne    -0.3815091602    -3.5818249309    -0.3937383257
 Ne     6.4182501346     1.5998965764    -1.7924078680
 Ne     5.0776420548    -0.8657506327    -5.6627344854
 Ne     2.2865199822    -4.8024914387     6.2126312456
 Ne    -6.2179931158    -5.7217549342     5.4324893722
 Ne     4.0496740473     5.4099886611     2.3852686328
          6
Energy: -0.04609663934748836 Kcal/mole
 Ne    -1.0526237388     5.7440860631    -5.7143741697
 Ne    -4.0127385216    -3.5143974693    -5.4815222326
 Ne    -6.0619616217    -5.8704456122    -3.0861738544
 Ne     3.0877722501    -3.1200045535    -3.6771709367
 Ne    -4.2436815967     2.8230458671     1.9922025770
 Ne     3.9738992753     0.9524140309    -1.8069367381
          6
Energy: -0.03272067771706367 Kcal/mole
 Ne    -4.3915900336    -2.6225540149     5.6306148443
 Ne    -6.8408411182     2.3883053411    -6.6324796035
 Ne     5.7451708085     1.3487202732    -6.2434835944
 Ne    -6.2916784324     4.0598264875     2.1046466031
 Ne     5.1921342688     3.4921935253     5.3388523312
 Ne    -7.3574850195    -4.3808009599     7.4497113453
          6
Energy: -0.22412300682764977 Kcal/mole
 Ne     4.2004230155     5.4622310092    -4.9478464938
 Ne     7.1251864542    -2.7681478733    -1.0911602332
 Ne    -1.4927086684     3.1308953533    -3.2639674220
 Ne     1.9983115380     2.6333370715    -4.4191988000
 Ne     4.0219807769     2.3164240305    -7.3687921220
 Ne    -0.3782181107     4.7993073718    -6.9663524109
          6
Energy: -0.8480127851171421 Kcal/mole
 Ne     3.1582680552     5.3567174017    -5.2150049005
 Ne     2.4329464069     4.2066339998    -2.4136363277
 Ne     0.1879768762     5.2765827274    -4.3086702388
 Ne     1.6247180710     2.5891788963    -4.9023058229
 Ne     3.7040543687     2.9928559759    -7.1447159224
 Ne     0.9786554705     4.5129265745    -7.2458599706
