          6
Energy: -0.8480127851171421 Kcal/mole
 Ne     3.1582680552     5.3567174017    -5.2150049005
 Ne     2.4329464069     4.2066339998    -2.4136363277
 Ne     0.1879768762     5.2765827274    -4.3086702388
 Ne     1.6247180710     2.5891788963    -4.9023058229
 Ne     3.7040543687     2.9928559759    -7.1447159224
 Ne     0.9786554705     4.5129265745    -7.2458599706
