          6
Energy: -0.008661568445139925 Kcal/mole
 Ne    -4.9292267065    -4.4367580197    -3.7958385011
 Ne     3.8309440178     1.4923798142    -3.3197045288
 Ne    -2.8404496966     3.5082473174    -2.4048673007
 Ne     0.5997356338    -3.1922706626     1.6188884684
 Ne     4.8486631779     3.5591499062     4.8457636729
 Ne     3.6998167850    -4.8853150432    -3.3301642370
