          6
Energy: -0.05567422502119698 Kcal/mole
 Ne     4.2806012503    -4.9767671849     4.8838833592
 Ne     7.1772606848     2.5004571937    -6.8089593209
 Ne     0.9949462680    -0.7634584099     3.3537906459
 Ne    -1.6477038831     0.1125662348     6.9107225627
 Ne     1.1513687580    -2.0179862610    -1.4878627507
 Ne     3.1012762978     1.2344778224    -3.1799073413
          6
Energy: -0.08132162101302436 Kcal/mole
 Ne     6.8467819037    -2.0709198860     0.6831663204
 Ne     0.4856419998     2.4246603067    -0.0776705907
 Ne    -3.8770539457     4.6808390549    -6.9944679615
 Ne     4.9391160701     0.4476463332     4.7005730920
 Ne    -1.5644413458     3.5278000280    -2.0483128853
 Ne    -3.6086193082    -6.5062666016     3.3893928207
          6
Energy: -0.05526321505747837 Kcal/mole
 Ne     6.2723454316     5.5233545354     5.9833040744
 Ne    -0.8044529335    -5.6857636666     0.8340005797
 Ne     0.7832400844    -2.5534133600    -1.2160328977
 Ne    -4.8358182311    -1.4670564277    -0.0156297961
 Ne    -3.4990779074     0.2998988128    -5.7235528025
 Ne    -5.1412809577     2.9098131381    -1.9610146652
          6
Energy: -0.07063208972916318 Kcal/mole
 Ne    -0.7025110826    -2.8222629748    -1.7856818211
 Ne    -0.9835593516    -1.7148456201    -4.5188985241
 Ne     5.3349988714     2.3384341655    -0.4405382390
 Ne     2.8024357528     2.3574568808     4.8349409770
 Ne    -4.7414608009     3.2271908301     3.9806115368
 Ne    -1.1039013202    -1.1806994731     7.0690389956
          6
Energy: -0.15798610450724884 Kcal/mole
 Ne     2.4922992345     0.2735438771     6.2616767669
 Ne    -6.7434373441     3.1537405101     0.1125355032
 Ne     1.5884641277    -0.7925624904    -2.0054205540
 Ne    -5.9689723792     2.6687361419    -2.9541639533
 Ne    -1.2817520144     2.6763533389    -5.0160670479
 Ne    -6.0274359977     4.0216929634    -5.8931370582
          6
Energy: -0.05224635167153387 Kcal/mole
 Ne     3.6257130242     2.5936940763    -3.1364277854
 Ne    -1.9523177403    -7.3006447711    -2.8744596990
 Ne     6.4977779931    -1.2951066133     6.5318324281
 Ne    -5.9108843971    -0.2328824381     1.9922866016
 Ne     1.2814338536    -4.4230239873    -1.6981343811
 Ne    -1.3494898765    -1.5663080168    -2.4414656891
          6
Energy: -0.08645063668724674 Kcal/mole
 Ne    -4.4662042843     5.1472587319    -3.2193202157
 Ne    -2.9524003025     4.1086344081     4.3960184416
 Ne     0.7023660347     5.4330392914     7.3602023501
 Ne     0.7761266879    -5.4374459902    -7.4047156119
 Ne     1.6127594659    -5.3551622040    -2.3674575308
 Ne    -1.4774421678     5.8714346516    -2.8457393017
          6
Energy: -0.003562345628169205 Kcal/mole
 Ne    -6.6288604280     2.4835356867     0.3219086376
 Ne    -1.9344163630     0.2902404816    -5.7424076313
 Ne     1.2650205992    -1.2008144310     7.4376982202
 Ne     1.6907330219    -3.8482919426    -0.6222108089
 Ne    -1.2641577757     7.1316003775     2.8981695781
 Ne     2.1267526656     7.2643747678    -4.8801875005
          6
Energy: -0.536201758213057 Kcal/mole
 Ne    -5.0158064993     3.5274310764    -4.0120704743
 Ne    -1.8300418212     2.6941377787    -3.9093767701
 Ne    -3.9532335123     1.6758619993    -1.6320120428
 Ne    -6.7926636557     2.5505482975    -1.5063697186
 Ne    -5.2526646673     3.1555705751     1.2310643037
 Ne    -0.9389964432     2.5316991262    -6.9402257762
          6
Energy: -0.8484612348063885 Kcal/mole
 Ne    -4.9015476828     3.1373207497    -4.3280664924
 Ne    -4.3473444438     4.9199006249    -1.8111363780
 Ne    -3.3328253367     1.9191430527    -1.9258456994
 Ne    -6.3756705614     2.5411131729    -1.6703479259
 Ne    -4.4377602139     3.1340050013     0.7055350130
 Ne    -2.0127120642     4.1106278179    -3.6947680988
