          6
Energy: -5.964742396168632E-6 Kcal/mole
 Xe    29.6294540497   -33.1376959542    35.7368407073
 Xe    37.6187040464    -3.9625775766   -25.6977675266
 Xe   -27.1975272986   -35.5131062989    28.0455583293
 Xe    -0.8481888805    23.1234528892   -17.6410403750
 Xe   -28.6471482388   -10.0818047652    -1.6501005961
 Xe    18.4943577674   -36.0285559459    -7.8971191243
          6
Energy: -2.8009520100448487E-5 Kcal/mole
 Xe     9.8600138843   -10.3822839052   -11.7738837165
 Xe     8.4759395166     9.2982879991     9.1638134251
 Xe   -39.1971126223    25.8455296008    40.6546827352
 Xe   -19.5467657102   -10.8400660225   -15.8986723163
 Xe   -14.5222488909    -5.9429610373    32.9529911506
 Xe    22.1541811905   -41.2073356253   -41.1099901263
          6
Energy: -0.4217374292017669 Kcal/mole
 Xe    -0.4767172501    10.1176396848     0.6321204504
 Xe    10.6473800330    18.6535962168    14.9319443348
 Xe    13.7474237600    16.1104833504    12.7821187410
 Xe   -36.9366114529   -25.4161005249    -4.6229998743
 Xe   -37.1242336201   -13.6848232649    33.8194684818
 Xe     4.6179230919   -29.1439205692   -26.1462782028
          6
Energy: -0.0011831420326531882 Kcal/mole
 Xe    27.7537632872   -25.4516103049   -30.6800899234
 Xe    32.6997708304    40.1494236112   -13.4782199714
 Xe    26.7035545861    40.6728752823   -25.3504814599
 Xe   -37.6148824442     2.9335702461    13.2022985603
 Xe     7.2489628456   -18.7659999499    40.4293941873
 Xe    31.2547505774   -34.9753809305    -7.9647799571
          6
Energy: -0.20958207410650426 Kcal/mole
 Xe    16.9930098049   -16.0862087875    -2.7539975194
 Xe    37.9300567444    33.8056229283   -11.1036762886
 Xe     5.3182593004    34.6916234963    -4.6513728066
 Xe     4.2132024841    30.0687584992    -1.9735160563
 Xe   -30.7119876152     8.7749899221    19.7788436961
 Xe    41.2741537264   -17.4375329393    -8.5289932309
          6
Energy: -6.74070074212503E-5 Kcal/mole
 Xe   -32.9077012190    19.9002608268    -3.0693458465
 Xe    41.0314907739    22.2896191421    17.4570890584
 Xe     6.7499740565    17.1617309298   -32.0600391491
 Xe   -12.9654752580     8.3711634875    -8.3495606429
 Xe    -5.9452680046    -5.2354056970   -38.5359126586
 Xe    22.7149438996   -34.6964906937    -7.3634013385
          6
Energy: -8.48198321060914E-5 Kcal/mole
 Xe   -27.4180826414     4.9587614891   -15.1539189682
 Xe    36.6237634717    28.8217216550    24.6327701659
 Xe   -24.5845137305    10.3972962358     4.8025972749
 Xe   -29.2827884297    -8.5703299198    37.1661881212
 Xe    -4.8601817996   -25.0821941638    -3.1651106361
 Xe    36.4668108136   -20.8797830177    19.2672024233
          6
Energy: -0.1676341233909961 Kcal/mole
 Xe    -9.2228593946    -2.8013122287   -14.1137379092
 Xe    28.9618837863    40.5795788606    36.2479615404
 Xe   -40.2655107585    39.7256801340   -12.2657261970
 Xe    -0.2342320893    -8.8745211198    26.0843910023
 Xe    -9.8539593525    -8.2552377339   -15.6353034938
 Xe    30.8378838223    19.9689157400    18.1234268993
          6
Energy: -0.8160984036707967 Kcal/mole
 Xe   -31.1997175158    -7.0281505101   -14.7227965987
 Xe    24.2698345660    35.0461279703    33.3353148148
 Xe    -1.6651914270    19.6642431015    29.2876627499
 Xe   -16.5796395341   -17.1837864286   -16.6425551755
 Xe   -30.3490592786    -3.5213316098   -11.8587516120
 Xe    22.2969330766    34.2289293897    37.4559796859
          6
Energy: -2.5979667974990526 Kcal/mole
 Xe   -29.8391507019    -7.4613881778   -15.6861184921
 Xe    21.7150812392    34.1689394128    32.9775314638
 Xe    17.8034941388    32.6455861170    34.3492202563
 Xe   -25.6036796833    -6.8729743477   -16.8077705571
 Xe   -26.9720273422    -5.8693814763   -12.7296300193
 Xe    20.8949265768    33.7675219109    37.2945158986
