          6
Energy: -3.030725857187309 Kcal/mole
 Xe   -32.7427186269    26.4778595079    24.1891728306
 Xe   -32.2386218884    27.8319572849    20.0026898911
 Xe   -30.1762262461    24.2032898441    21.4198682019
 Xe   -28.8940296601    28.1806128238    22.8615953538
 Xe    21.5668502517   -14.7906780417   -13.2887189424
 Xe    24.0170450104   -16.3735851345   -16.6051846633
