          6
Energy: -2.5979667974990526 Kcal/mole
 Xe   -29.8391507019    -7.4613881778   -15.6861184921
 Xe    21.7150812392    34.1689394128    32.9775314638
 Xe    17.8034941388    32.6455861170    34.3492202563
 Xe   -25.6036796833    -6.8729743477   -16.8077705571
 Xe   -26.9720273422    -5.8693814763   -12.7296300193
 Xe    20.8949265768    33.7675219109    37.2945158986
