          6
Energy: -3.443641319433405E-4 Kcal/mole
 Xe    22.5877620696    24.6855709749   -31.2198953302
 Xe    -2.3771647476    -6.9259462073    -5.1849383917
 Xe     3.6847308709   -13.0369502477   -37.7419842969
 Xe     9.8215940015     6.0766737491   -18.8016776556
 Xe     9.6295870333   -19.0072884595    -2.1077041085
 Xe    18.5584008862   -39.8957629365    39.8287782426
          6
Energy: -0.4300272272226856 Kcal/mole
 Xe    36.9009738984    11.5686828308    -8.5714938775
 Xe    -5.3296634437    -4.2499821998   -34.3172188440
 Xe    29.6584156737   -13.3461878958   -37.3434797490
 Xe   -12.0668285029   -24.6131995880    -8.7680005623
 Xe    -8.6366785324   -23.4648052812    -6.3419793879
 Xe     8.0081306794   -24.7997985630   -11.1332142508
          6
Energy: -6.16833436160066E-5 Kcal/mole
 Xe    34.8739894928   -14.7923268769     1.1589809893
 Xe     7.0812264429    19.0897220283    11.3826529067
 Xe    38.1722721622    -6.5251079322   -34.2081424400
 Xe   -34.9319727063   -21.2987955804     1.6895103083
 Xe    -4.4720863087   -14.4543712086     2.2642324547
 Xe     2.3220587144    -9.8397417517    24.3002412215
          6
Energy: -0.0016923860472541174 Kcal/mole
 Xe    19.6650884815   -20.2256924376    18.2529623176
 Xe   -29.9864994774    24.8096607588   -13.7468148991
 Xe    15.0543598017     1.1158877711    -7.7048542930
 Xe   -33.2407857936   -26.7276010934    20.9297561753
 Xe    -6.1821474183   -24.9394974239    40.7494500405
 Xe     8.5226535506   -22.3457463231    23.6701652524
          6
Energy: -0.4329666126805463 Kcal/mole
 Xe    -1.0691502232    20.6981129409    34.0736799151
 Xe   -39.0410905297    26.3368833893    21.1742753821
 Xe    32.9936709553     8.6391174757    -3.5982746683
 Xe   -34.5187440688   -32.5075615323    15.6382277952
 Xe   -31.6669898325   -35.1277173085    17.7467456087
 Xe    14.5700547969    -6.0856393165    32.2435046017
          6
Energy: -0.8109150623454716 Kcal/mole
 Xe   -21.6113580468    32.7080175316    29.5882756603
 Xe   -25.0374580258    39.4105954133    28.0262819913
 Xe    29.7904871629     5.1932932274    11.6425042701
 Xe   -29.9506575221   -35.5920084655    14.1173357056
 Xe   -29.0059606746   -34.4017063891    10.1554341015
 Xe    27.3242304551     4.5612717678     7.6346303027
          6
Energy: -0.4323903957333182 Kcal/mole
 Xe   -34.5736771592    31.1860667598    17.5559024495
 Xe   -31.3053124836    34.1837797307    17.2429231234
 Xe    10.4659153864    20.4777922948    29.7402614370
 Xe   -14.9539836169    10.2131616874    32.7627230568
 Xe   -31.3459470677   -10.3491524819    14.6863389861
 Xe    29.3855500378   -30.9260200210   -11.9568453456
          6
Energy: -1.29241233448308 Kcal/mole
 Xe   -30.9151255232    31.0530793052    20.5015785659
 Xe   -33.6575938758    33.3072058614    23.1116032473
 Xe    37.2089958517    20.2600502777   -16.2012239927
 Xe   -32.1813737970    35.2333190228    19.4959170884
 Xe     3.0276035704     0.0972917114    15.7110090974
 Xe    38.2688401563   -30.2661193652   -39.5288482019
          6
Energy: -1.2961294623307513 Kcal/mole
 Xe   -33.0461178523    30.0344891923    23.5533522986
 Xe   -32.4444447475    28.3137001904    19.5515579081
 Xe    16.7332493824    34.9515538157    27.2535094312
 Xe   -29.0557184558    28.7659870220    22.3069876412
 Xe    15.4789521740   -13.3441942721     5.5446529457
 Xe    34.6870299686   -21.0449046279   -32.2244646438
          6
Energy: -3.030725857187309 Kcal/mole
 Xe   -32.7427186269    26.4778595079    24.1891728306
 Xe   -32.2386218884    27.8319572849    20.0026898911
 Xe   -30.1762262461    24.2032898441    21.4198682019
 Xe   -28.8940296601    28.1806128238    22.8615953538
 Xe    21.5668502517   -14.7906780417   -13.2887189424
 Xe    24.0170450104   -16.3735851345   -16.6051846633
