          6
Energy: -3.0306492731644528 Kcal/mole
 Xe    17.3837028446     9.4042131408   -31.2817490682
 Xe    17.6469654880    13.2950985212   -29.2331228519
 Xe    19.0387382243    12.9009671930   -33.4149159504
 Xe    21.3248551965    11.0205684450   -30.1515856858
 Xe    33.3329250189    -2.5178595605    16.6314283576
 Xe    36.2460545654    -5.6556396868    17.7166160403
