          6
Energy: -0.0014754251858224974 Kcal/mole
 Xe     2.5197430307   -35.8439850142   -11.3440255100
 Xe    18.4119989908   -25.6731702115   -18.9382861905
 Xe   -12.2607265995   -31.8910300374    41.1752249340
 Xe    20.4430460900     7.7075661967    28.9967928461
 Xe    41.1733857305   -25.8891919564    38.8621387932
 Xe    32.3860076197   -33.8626701871    33.7436516239
          6
Energy: -0.005740059131493098 Kcal/mole
 Xe    14.3332703282   -33.5435734768   -25.1382749441
 Xe    32.3351685636    -0.5884461526   -14.0814854110
 Xe    -9.9581067852   -28.8741245993    11.0508600151
 Xe    34.3352087136    23.9815548211    17.5949714302
 Xe    27.0241809383    30.7661476083    15.5198569922
 Xe    25.2141041585   -18.4162235914    35.3539330108
          6
Energy: -2.132507837414587E-5 Kcal/mole
 Xe    26.6456131701   -32.0510144983   -29.5346537267
 Xe    22.0518485133    24.8868147063     7.2080871753
 Xe   -14.9472755593   -17.9613672655    -6.7830605073
 Xe     2.0683098768    30.9650961686    27.1186459952
 Xe    17.2971214905    29.6355886324   -24.1444569864
 Xe    25.9626093521   -11.8990706456    20.7308952028
          6
Energy: -6.8664886660454336E-6 Kcal/mole
 Xe    22.1470602214   -19.8554667065   -40.4496249537
 Xe    31.0730125625    32.7054585720   -28.6506139430
 Xe    24.4474263135   -37.5588620505    40.2209555606
 Xe   -24.7297896417    16.9614995493    20.7267289689
 Xe    36.5474081844   -28.9800306277    11.4973923313
 Xe    32.4401258738    30.4825251883    26.5863930157
          6
Energy: -2.194177098734509E-4 Kcal/mole
 Xe    15.6224437074   -28.1567826558   -20.1860705536
 Xe    18.1121734034    28.0365638785   -17.7107254313
 Xe    29.1957644711   -15.6984535488    23.9121047514
 Xe   -19.5903354861    12.5524483248    29.1003784881
 Xe    28.2835263796   -31.6428817182    15.0443600664
 Xe    24.2978910827     1.0792134072    39.2626941833
          6
Energy: -1.5624518827049412E-4 Kcal/mole
 Xe    27.8937717552   -10.4658897973   -36.3550676799
 Xe    -0.7782284851    16.5183578511   -24.8490989902
 Xe    18.6274663315    -2.3411081914    39.4082038867
 Xe     1.8213449019   -10.3904295650    12.1714398599
 Xe    37.3910494414   -11.1400610664    37.0368663861
 Xe    18.3689864059     5.3332897434    14.4782303437
          6
Energy: -3.0603211708916536E-5 Kcal/mole
 Xe   -13.7253563305   -39.2988472814   -31.9824859703
 Xe     3.0890420242    17.5763613106    -9.2613607696
 Xe   -24.7187225035    10.9260745712    11.9667365659
 Xe   -21.0003264206   -37.3365818586    -6.3522870347
 Xe    36.0501676550   -18.1202905380    23.2327864480
 Xe    27.7220809234    12.7929732421    15.2661710078
          6
Energy: -3.115457951792602E-5 Kcal/mole
 Xe    13.2562384332    -8.7169898370   -37.5195892872
 Xe    24.8695388066    39.2070400437    -0.8843556661
 Xe    21.8821696064    26.2377066698   -26.7470740586
 Xe    41.1047186650   -17.7317202552   -36.6652512270
 Xe    11.2091061730   -15.3227479260    40.8155836439
 Xe    37.4478950141   -17.0835789058    -4.1902852495
          6
Energy: -0.858036323755001 Kcal/mole
 Xe    17.1841209860     7.7997369924   -30.2905327910
 Xe    -8.9668643960    30.3583966784    -8.9122718416
 Xe    33.6600213256    34.5207631902   -30.6142723512
 Xe    21.6296416350     7.7245743303   -31.0226613850
 Xe    34.0316811700    -1.9191955244    16.5353134358
 Xe    35.6280264554    -6.0545582776    15.9225425827
          6
Energy: -3.0306492731644528 Kcal/mole
 Xe    17.3837028446     9.4042131408   -31.2817490682
 Xe    17.6469654880    13.2950985212   -29.2331228519
 Xe    19.0387382243    12.9009671930   -33.4149159504
 Xe    21.3248551965    11.0205684450   -30.1515856858
 Xe    33.3329250189    -2.5178595605    16.6314283576
 Xe    36.2460545654    -5.6556396868    17.7166160403
