          6
Energy: -6.029021007432517E-4 Kcal/mole
 Xe     9.3475412655   -20.4145455122   -22.8766479872
 Xe    19.2450204803    -9.1900734325   -18.9783481509
 Xe   -12.2476703116     4.4452917512     9.0746380365
 Xe   -10.4980319122   -22.0046376313   -17.7584294470
 Xe     5.5562004255    14.4845785985   -20.4198835067
 Xe    10.4051074848   -12.7297380639    17.2440703965
