          6
Energy: -3.228092202323339E-6 Kcal/mole
 Xe   -37.4210336222   -36.9264715860    -3.3055027685
 Xe    29.2701385520    40.0229770316    -5.4526641737
 Xe    22.1890074381    -1.2416132141    40.9621562850
 Xe    18.8676355323   -41.2323361862   -13.2160665097
 Xe   -38.8203250785    14.7554754609    -7.5046670448
 Xe     5.9581639691    33.9876513504    37.1544653853
          6
Energy: -0.023308981095080693 Kcal/mole
 Xe   -29.6805954899   -23.6636401900   -23.3708908773
 Xe    41.1164614979    11.6883981825   -20.4592533395
 Xe    35.9343915828    41.0126212807   -41.2260379433
 Xe   -29.3933169598   -27.6094505873   -30.3817242069
 Xe   -29.1790287095    22.5467888984    -1.8977948214
 Xe    -9.9904223161   -12.1733733035    36.5261790752
          6
Energy: -4.5432383255447765E-5 Kcal/mole
 Xe    -6.8292606061   -12.2584293470   -13.9914654283
 Xe     2.1394778558     7.1230182453    -2.0629149009
 Xe    37.7745436391    11.8630498886    14.9040828344
 Xe   -34.6405121277   -35.2936866467   -31.9405302257
 Xe   -35.8489742362    20.7110917807   -39.6119821094
 Xe   -33.6425633704    -4.7942671239    -0.6154714426
          6
Energy: -8.067212636696769E-5 Kcal/mole
 Xe   -36.6700229904     9.8929821642     1.7771090244
 Xe    13.8121356709   -39.9866721289    -0.8520197453
 Xe    -6.0720545413    -5.2951280284   -40.0863388512
 Xe   -23.3562276535   -25.8138830384   -32.1339563342
 Xe   -17.3199620642    -9.5368513124   -16.5070027760
 Xe   -23.3794426937    19.8809697054    36.9465113315
          6
Energy: -0.4133488859674334 Kcal/mole
 Xe   -21.7785386292     2.8196013568     7.7666094753
 Xe    32.1131337652   -17.2405225085    16.8133349245
 Xe    13.0876551609    -0.1241890914   -40.2324057724
 Xe   -24.1170346760     6.3751595504     7.3418831452
 Xe   -22.3245945614     8.6762745863   -40.6660104777
 Xe   -35.3124114897   -14.1025501909    18.1721534884
          6
Energy: -0.4249039230435879 Kcal/mole
 Xe   -19.8618472311   -38.2477303559    19.8347745111
 Xe    27.4094047009   -17.7119763066    32.3085718624
 Xe    23.8566843382   -13.2730632951   -34.8070355176
 Xe    12.1893877321    33.3912605808    35.2989954577
 Xe   -19.2067782411   -10.7093020168   -35.1611084120
 Xe   -22.3393801517   -34.8987241392    21.6053818978
          6
Energy: -0.002391486494551959 Kcal/mole
 Xe     2.2887929605   -38.2921311308     8.3586207066
 Xe    24.6200611658   -33.6702557789    29.1849211921
 Xe    28.2166802016   -27.1560792277   -14.8519423660
 Xe    36.8263116651    29.2478598671    24.8860239928
 Xe   -24.6637920887     4.5630222589   -40.0144506655
 Xe     8.9751815148   -38.3532788966    18.1952318301
          6
Energy: -1.183008596405241 Kcal/mole
 Xe    14.4209429951   -30.2602677502    17.7771904785
 Xe    12.4925763664   -30.7235987147    21.4202671255
 Xe    40.1030467759   -22.8765865164    -8.0428719719
 Xe    -3.2923389463   -14.6685919594     9.2112636153
 Xe   -31.0673040904   -23.2160593962   -40.2554434650
 Xe    16.7051627549   -29.9578698147    21.6841826059
          6
Energy: -2.3950623012752836 Kcal/mole
 Xe    11.5101177467   -33.5373026856    19.2470999287
 Xe     8.6833644764   -33.5522860903    15.3525795478
 Xe    27.6736018779    -2.3770801198     9.0291708067
 Xe     9.6326569480   -29.8259469276    17.3880529120
 Xe   -40.1389000615   -22.3079616646   -39.2819801138
 Xe    13.0749469168   -31.6991599029    15.7385159855
          6
Energy: -5.325657160114407 Kcal/mole
 Xe    11.6759164399   -33.4470568173    19.1956050219
 Xe     9.0834182177   -33.6923788064    15.6211666293
 Xe    14.1907690892   -29.8474872795    18.8784453496
 Xe    10.0787167652   -29.7666944760    17.3385049570
 Xe     9.9433986976   -30.2578381142    12.9689477412
 Xe    13.1838203259   -32.1336565192    15.2478138171
