          24
Energy: -95.59216360584226 Kcal/mole
 H     -3.8385578412     0.0659588823    -1.9062886969
 F     -2.9626290010     0.0476254340    -2.1770312898
 H     -1.5231968565    -1.4288118777     2.5619194302
 F     -2.2191369355    -1.7968680560     3.0321226375
 H     -5.1152493699    -0.0086367365    -0.1243291573
 F     -5.2464232981     0.1499786368    -1.0179306143
 H     -5.7763812815    -1.9650439012     3.9339253308
 F     -4.9771258299    -2.0400829531     4.3771508533
 H     -6.7892070295    -2.2574829357     2.1328233322
 F     -7.0652398001    -1.8954147817     2.9288142627
 H     -3.1156870199    -2.8940871181     2.1568738356
 F     -3.5718067960    -3.4381890980     1.5765318801
 H     -0.8460034929    -0.1256443726     0.9664414304
 F     -0.4532273210    -0.7345870070     1.5284065064
 H     -5.1227108719    -3.1568288203     1.0547897065
 F     -5.9896378796    -2.9381584607     0.8510500760
 H     -3.1729892675     0.8256307478     3.7070358286
 F     -3.0236463932     1.1402972826     2.8587607094
 H     -4.1172325439    -0.7111191312     4.9221244304
 F     -3.7068802473     0.0915637579     5.0900534996
 H     -2.1156228527     0.5554047395    -0.8629688690
 F     -1.8046014802     0.8026484471    -0.0365154493
 H     -4.0185278281     0.2817258069     1.8890663461
 F     -4.5803116088    -0.2899400640     1.4435485398
