          24
Energy: -95.6102988855818 Kcal/mole
 H     -3.8921744127     0.0080841891    -1.9738725500
 F     -3.0204787242    -0.0283545413    -2.2561983293
 H     -1.4747447611    -1.3682571788     2.4535540769
 F     -2.1658428703    -1.7444739433     2.9244397844
 H     -5.1299774369    -0.0289892660    -0.1870070130
 F     -5.2862705865     0.1260943522    -1.0771814468
 H     -5.6773414851    -1.9272586329     4.0122050951
 F     -4.8717725783    -2.0087249540     4.4426827076
 H     -6.7271339284    -2.2226638876     2.2321355224
 F     -6.9764487314    -1.8315295027     3.0231759904
 H     -3.0490526788    -2.8682997239     2.0774861283
 F     -3.5168663045    -3.4302672803     1.5241039121
 H     -0.8133501118    -0.0776379814     0.8384387000
 F     -0.4095215936    -0.6619263520     1.4184547582
 H     -5.1019300183    -3.1689903186     1.1032093911
 F     -5.9814230373    -2.9607605680     0.9482210029
 H     -3.1234736410     0.8560104679     3.6249395103
 F     -3.0029039005     1.1593017571     2.7679877430
 H     -4.0021130412    -0.6625816274     4.9119250305
 F     -3.5935654219     0.1482395049     5.0405599177
 H     -2.1381525016     0.5264592299    -0.9928185822
 F     -1.7975870560     0.8061992498    -0.1886732603
 H     -3.9842901042     0.2700817123     1.8106955747
 F     -4.5334048135    -0.3129363759     1.3640951438
