          24
Energy: -95.60869693681205 Kcal/mole
 H     -3.8877909592     0.0606087030    -1.9394741834
 F     -3.0125068688     0.0152701574    -2.2091242853
 H     -1.4928344433    -1.3834437334     2.4571107511
 F     -2.1971464942    -1.7548800679     2.9119388333
 H     -5.1376866946     0.0129230953    -0.1758395073
 F     -5.2917306467     0.1861582265    -1.0630537148
 H     -5.6874587059    -1.9270569283     4.0109567819
 F     -4.8908927370    -2.0068993409     4.4581668515
 H     -6.7244667948    -2.2025987743     2.2033598405
 F     -6.9705302956    -1.8232285069     3.0011191738
 H     -3.0724287486    -2.8504174226     2.0266014930
 F     -3.5355858263    -3.3987888987     1.4559323721
 H     -0.8052557461    -0.0805295117     0.8809770182
 F     -0.4083120950    -0.6799652184     1.4501883774
 H     -5.1201025183    -3.1291414349     1.0466773978
 F     -6.0002829964    -2.9169394490     0.9012757362
 H     -3.1349635307     0.8648052959     3.6342626144
 F     -3.0048303650     1.1662076970     2.7780436285
 H     -4.0249505136    -0.6539394401     4.9203644938
 F     -3.6191663542     0.1587018734     5.0462307382
 H     -2.1253099211     0.5571973652    -0.9368904110
 F     -1.7821408215     0.8281712851    -0.1308525063
 H     -3.9784790975     0.2763281995     1.8164095082
 F     -4.5275442816    -0.3037909183     1.3659894457
