          24
Energy: -95.59455078553702 Kcal/mole
 H     -4.0737201856     0.0754505458    -1.7128485788
 F     -3.1836336607     0.1055576295    -1.9313172076
 H     -1.8204857729    -0.9736855340     2.8296519003
 F     -2.5094563097    -1.4302129876     3.2268814101
 H     -5.4415923327    -0.0762831882    -0.0373083145
 F     -5.5389165398     0.0877089156    -0.9342607038
 H     -5.9996611636    -2.1150871578     4.1338853636
 F     -5.2379349530    -2.0364256640     4.6383400688
 H     -6.8510014602    -2.5909563242     2.2560177036
 F     -7.2055231584    -2.2806861310     3.0427424157
 H     -3.1444010468    -2.6298500830     2.2733983573
 F     -3.4780181091    -3.2313933914     1.6669873549
 H     -1.1598811874     0.3735339140     1.2796119565
 F     -0.7460556735    -0.1527899296     1.9062064471
 H     -5.0587500886    -3.2086986677     1.1713725609
 F     -5.9526121495    -3.1363583949     0.9798875720
 H     -3.8411932184     1.0274704720     3.8723003673
 F     -3.7079390237     1.3306649754     3.0171948693
 H     -4.5926509884    -0.5716460590     5.1370935431
 F     -4.3004843084     0.2867212589     5.2739627459
 H     -2.4215954088     0.7885536490    -0.6493200048
 F     -2.1443381248     1.1273056829     0.1564494771
 H     -4.5027140468     0.3105672421     2.0234368139
 F     -4.9443000168    -0.3336685936     1.5429672319
