          24
Energy: -95.62600727805335 Kcal/mole
 H     -3.8401928402     0.1064649691    -1.9963059414
 F     -2.9686481309     0.1063137145    -2.2814353802
 H     -1.5038002021    -1.3830745496     2.4261893389
 F     -2.1966221142    -1.7567906254     2.8965329291
 H     -5.0977751548    -0.0416015451    -0.2125746508
 F     -5.2383209444     0.1455170139    -1.0992101598
 H     -5.6456121774    -1.9695303321     4.0580313841
 F     -4.8379500134    -2.0354029020     4.4872535101
 H     -6.7225722120    -2.2754420087     2.2794386192
 F     -6.9516227114    -1.8865656967     3.0776867528
 H     -3.0801370818    -2.8897394409     2.0587684259
 F     -3.5491288989    -3.4607578070     1.5157456815
 H     -0.8152548263    -0.0650528495     0.8338794829
 F     -0.4315563912    -0.6750633613     1.4009347592
 H     -5.1384993021    -3.2126145897     1.1124368196
 F     -6.0228395498    -3.0126231198     0.9751971083
 H     -3.1617717607     0.8524710085     3.6108030300
 F     -3.0587272463     1.1485764095     2.7490650074
 H     -3.9829264764    -0.6681882536     4.9291179695
 F     -3.5881268297     0.1518093428     5.0414842492
 H     -2.0926160072     0.6249839899    -0.9960925929
 F     -1.7549297579     0.8753962289    -0.1811381723
 H     -4.0106899762     0.2262608461     1.7985960906
 F     -4.5398963733    -0.3659074840     1.3401571545
