          24
Energy: -95.6164808114621 Kcal/mole
 H     -3.8748164819     0.0493207663    -1.9774852981
 F     -3.0041761879     0.0254119722    -2.2643700277
 H     -1.4876420848    -1.4028167398     2.4251091849
 F     -2.1770131561    -1.7646342894     2.9096136606
 H     -5.1167382788    -0.0382992871    -0.1887113798
 F     -5.2674687757     0.1376548087    -1.0759596390
 H     -5.6510363919    -1.9481557612     4.0049877961
 F     -4.8436739321    -2.0180842717     4.4341321332
 H     -6.7216519241    -2.2502273065     2.2231784297
 F     -6.9602269344    -1.8698473637     3.0227295935
 H     -3.0829205483    -2.8952382294     2.0962604840
 F     -3.5575770039    -3.4670373092     1.5590118809
 H     -0.8123541719    -0.1039378930     0.8111400489
 F     -0.4249591593    -0.7137679001     1.3758713715
 H     -5.1226922179    -3.1883266082     1.0930397394
 F     -5.9965414914    -2.9691177430     0.9220896860
 H     -3.1321189772     0.8565849509     3.6235718528
 F     -3.0277287167     1.1598694230     2.7644966509
 H     -3.9758194363    -0.6714882283     4.9110665897
 F     -3.5695711132     0.1401124243     5.0420462856
 H     -2.1113798201     0.5702969597    -1.0004201361
 F     -1.7614346630     0.8371113630    -0.1959094393
 H     -3.9921547279     0.2443755713     1.8132697720
 F     -4.5291025233    -0.3466067579     1.3623640705
