          24
Energy: -95.5085841452643 Kcal/mole
 H     -3.7857349579     1.3824118586    -1.4893802401
 F     -2.8998061025     1.6130999005    -1.5423150155
 H     -2.1334669330     0.1540688712     2.9177899990
 F     -2.7783813292    -0.4816020380     3.0623476581
 H     -5.4312483768     0.6254168613    -0.2106281230
 F     -5.3458233235     0.9808892355    -1.0515983671
 H     -5.9014422188    -2.2409821881     3.6025177205
 F     -5.2045535395    -2.0567685233     4.1693514655
 H     -6.5406678758    -2.6281716435     1.6219087004
 F     -6.9933014719    -2.5210783338     2.4121889359
 H     -2.9849380383    -1.6412669203     1.8866710612
 F     -3.0978176355    -2.2146133025     1.1799737267
 H     -1.4330414926     1.9086879620     1.8344237648
 F     -1.0844302930     1.3303061304     2.4547734149
 H     -4.6054847316    -2.6145393732     0.6002780689
 F     -5.4747419401    -2.7914482015     0.3679331276
 H     -4.8079545939     1.3353277859     3.9924392794
 F     -4.7844037270     1.7920787226     3.1976355687
 H     -5.0098156432    -0.5866557682     4.9514544643
 F     -4.9801304454     0.2822694490     5.2429621931
 H     -2.4099250512     2.3913787195    -0.1871337487
 F     -2.2375605163     2.7423335206     0.6423300508
 H     -5.1239313772     0.7356640949     2.0144824804
 F     -5.2963502015     0.1001984883     1.3762472480
