          24
Energy: -95.68587772066692 Kcal/mole
 H     -3.9275958753    -0.7531360367    -0.9854038148
 F     -3.0462072274    -0.9414173978    -1.1544989960
 H     -2.3756237771     2.1956241627     3.1352448837
 F     -2.7899812791     1.9482701372     3.9149966689
 H     -5.2600445476     0.3157985671     0.3304821800
 F     -5.3750680032    -0.1617641945    -0.4438513485
 H     -5.6312413440    -0.1001457632     4.6084802298
 F     -5.2343761364     0.5486030597     5.1208394512
 H     -5.5100037337    -1.5118539707     2.9696822688
 F     -6.1778097522    -1.2306284050     3.5316754207
 H     -2.7357004200     0.2685300533     4.0324935489
 F     -2.6380742414    -0.6320462049     3.8899434439
 H     -1.6204513532     1.4724018788     1.2787546001
 F     -1.7060215667     2.3116868199     1.6381534402
 H     -3.4582954690    -1.4128467726     2.6436980434
 F     -4.1125004840    -1.7602190555     2.1031082770
 H     -5.3391677448     3.5195220299     3.2851601326
 F     -5.1203479410     3.5776762561     2.3965516815
 H     -5.5774608554     2.1859805154     5.0155422633
 F     -5.7870099544     3.0554185423     4.8129202201
 H     -2.0978754994    -0.4904719076     0.1068970323
 F     -1.6719830454    -0.1482630509     0.8433735873
 H     -4.9015704246     2.0440281447     1.8844930594
 F     -4.7823753084     1.1515006317     1.7110682550
