          12
Energy: -46.099816650751876 Kcal/mole
 H      1.8893975444     2.3073722982    -0.8980468903
 F      2.3854250175     2.2331236295    -0.1303666958
 H      1.5841422288     1.9993790965     1.2929869671
 F      1.0386773505     1.9515561959     2.0285615973
 H     -1.5817426547     4.1872522577     1.2012277483
 F     -2.0832046829     4.2505205867     0.4360990318
 H     -1.3023567871     4.4757375330    -1.0124982692
 F     -0.7685404480     4.5193490550    -1.7568282708
 H      0.2481913588     3.2505480392    -2.0860565690
 F      0.8202498672     2.5351951086    -2.1297400619
 H      0.0583457152     3.2437071701     2.3766851341
 F     -0.4965207003     3.9720876004     2.4264265604
