          12
Energy: 0.4690957587517133 Kcal/mole
 H     -1.6610786348    -2.1122139668    -1.9036868397
 F     -1.7658313583    -2.1122139668    -0.9926896569
 H      2.0577053625    -4.5604891972    -4.6239078549
 F      1.1421036101    -4.6111096580    -4.6239078549
 H      5.3227650318    -4.9562345763    -1.4762855320
 F      5.2442149326    -4.9562345763    -0.5626560218
 H      5.6057326036    -0.5754374042     0.0924084699
 F      5.4500525721    -0.5754374042     0.9960968718
 H     -0.4004023336     4.5814719735    -3.9453065365
 F      0.5165976664     4.5814719735    -3.9453065365
 H      1.4601086670     1.1823070762     2.2752462279
 F      0.6043198619     1.1823070762     1.9458308046
