          12
Energy: -45.99864443553744 Kcal/mole
 H      0.3222402617     2.6065243485     0.4952537918
 F     -0.3640022436     2.2948117806     1.0175520772
 H     -1.4122970876     3.3301800041     1.7787810093
 F     -1.8797209401     3.9794630806     2.2269276691
 H      1.0732590157     5.2457403570     3.7726554074
 F      1.9548442180     5.0670829186     3.5943914153
 H      2.5059457741     5.1797352383     2.0351558113
 F      2.6891995291     5.1783107820     1.1366542631
 H      2.0321767314     4.0133004797     0.1531058152
 F      1.5712931312     3.3543995944    -0.2877171997
 H     -1.1093817580     4.9650820028     3.3234940411
 F     -0.5647159871     5.4661759155     3.8649117067
