          12
Energy: -45.99688675256678 Kcal/mole
 H      0.1925593358     2.6296792684     0.4445065509
 F     -0.4363493806     2.2359937061     0.9833706381
 H     -1.4759654042     3.1758336012     1.8775942476
 F     -1.9395928282     3.7754102587     2.3937787530
 H      1.0328762099     5.0825972664     3.8462196720
 F      1.9109482200     4.9483863103     3.6184786693
 H      2.4647636770     5.1094953139     2.0596675498
 F      2.6533622016     5.1336474863     1.1625966111
 H      1.8638021398     4.1075668379     0.1163262669
 F      1.3400956777     3.5201088264    -0.3543260743
 H     -1.1555023721     4.7303827654     3.5027220326
 F     -0.6052079178     5.2261045922     4.0433928049
