          12
Energy: -45.99807030521936 Kcal/mole
 H      0.3217044304     2.6346574317     0.5298610641
 F     -0.3190954030     2.2831801900     1.0836916539
 H     -1.3964638784     3.2931279287     1.8365860798
 F     -1.8788911422     3.9359934214     2.2780347104
 H      1.0731307540     5.2509808032     3.7964358732
 F      1.9576353504     5.0887990578     3.6168872714
 H      2.5137043132     5.1915572835     2.0613072391
 F      2.7026137731     5.1875335883     1.1639856547
 H      1.9797429614     4.0900619066     0.1510322360
 F      1.4859369110     3.4649534486    -0.3031527487
 H     -1.1122219861     4.9315458469     3.3605431979
 F     -0.5688311815     5.4412316370     3.8951793628
