          12
Energy: -29.634974947730953 Kcal/mole
 H      2.4353444218    -7.3752736418    -2.4382819421
 F      2.0634803849    -7.2771749585    -3.2707378186
 H      2.7837821322    -6.1151064945    -4.6595296584
 F      3.4954374678    -5.5712901012    -4.8562513238
 H      4.3551338852    -5.1043466522    -3.5445464021
 F      4.5141361334    -4.8628385302    -2.6743273998
 H      6.5505520340     3.4764849843     1.5190086616
 F      7.1387795773     4.0973289511     1.1882064152
 H      3.6468978434    -6.0252830744    -1.7108507172
 F      3.3941155445    -6.7636604843    -1.2294061099
 H      6.5617846371     0.5115668664     2.0295277348
 F      6.1444068679     1.3118882926     2.1913004531
          12
Energy: -35.33082184860369 Kcal/mole
 H      2.5753258319    -2.3595088343     3.6233340075
 F      2.7291415922    -2.8943681481     2.8945300378
 H      2.5097746742    -4.0224573535     1.4589654610
 F      2.2250462458    -4.3807061314     0.6643104822
 H      1.3699959774    -2.9569250468    -0.3815620140
 F      1.2721817689    -2.0709628387    -0.5969508399
 H      3.0760303458     1.0989487714     2.0431089363
 F      3.4457610159     1.0065114668     2.8771614384
 H      3.1380504689     0.0257525912     4.2810197336
 F      3.1484241365    -0.7656945213     4.7440454944
 H      1.1096527258    -0.5233480976    -0.0128352888
 F      1.3609101872     0.2809644738     0.3488827998
          12
Energy: -35.137211518373775 Kcal/mole
 H      2.4754736095    -3.5341687424    -0.5950735086
 F      1.6569481254    -3.3283835192    -0.9536226318
 H      1.2288351628    -2.3016468994    -2.2413310975
 F      0.9061174555    -1.6242921255    -2.7685244128
 H      1.5926828010    -0.5506156811    -3.8081750593
 F      2.0915783364     0.1183486222    -4.1882790001
 H      5.2766672064    -2.0501895933    -2.7848045891
 F      4.9693008313    -2.5708636676    -2.0953748103
 H      4.6746724794    -4.1504912948    -1.0700288439
 F      4.0542606774    -4.6514886306    -0.6172818225
 H      4.6622481232    -1.0994365219    -4.8490019046
 F      5.4168899307    -1.4079376934    -4.4292022267
          12
Energy: -39.6290710903845 Kcal/mole
 H      6.4178678085    -6.9317265018     1.7934379238
 F      6.3392545169    -6.8768735657     2.7054138587
 H      5.5378933231    -5.4838064210     2.6943285416
 F      4.9987567695    -4.7616692873     2.5248035088
 H      4.9440867847    -2.5715547312    -0.0068996557
 F      5.2257087618    -3.0498693753    -0.7368264762
 H      5.8573308065    -4.3529183190    -1.3900962696
 F      6.1756539353    -5.1514554781    -1.7093106038
 H      6.3729443201    -6.2765340485    -0.5757487136
 F      6.1976045077    -6.8844433737     0.0880217306
 H      5.2540552605    -3.0383242184     1.9738147427
 F      5.1244933094    -2.2595318393     1.5073545289
          12
Energy: -36.31470105541503 Kcal/mole
 H      2.2141078036    -0.9819950668     0.6041150482
 F      2.3122707491    -0.0709622215     0.5684472637
 H      2.4210677664     1.0996580785    -0.8183388356
 F      2.1492125130     1.4420113251    -1.6244269050
 H      2.5053683808     0.0209750703    -5.1900420697
 F      2.6263384335    -0.7545566869    -4.7159052330
 H      2.2617198793    -1.4270922474    -3.2323537759
 F      2.4986851573    -1.8781369786    -2.4699266597
 H      2.4348247078    -2.2037716421    -0.7299159585
 F      2.4227873527    -2.5048032907     0.1361810618
 H      1.8135699943     1.7227488402    -3.4384297607
 F      1.6738965420     1.6586910143    -4.3424634556
          12
Energy: -39.11067475210275 Kcal/mole
 H      4.2740836185     0.4926720578    -2.8112465424
 F      3.8870746217     0.3742440069    -1.9883930725
 H      2.4048224874     1.5260096505    -1.5456292550
 F      1.9940009398     2.2663436455    -1.1934641914
 H     -0.2633199433     3.5940614215    -3.5138515992
 F     -0.3495650311     3.3051002077    -4.3798494062
 H      1.0564898850     2.5559582785    -5.1846384994
 F      1.6532201008     2.1761630472    -5.7682116583
 H      3.1911282490     1.6579999858    -4.9095400790
 F      3.9296801689     1.4609663005    -4.4029753857
 H      0.7267568717     3.1654244825    -1.7592634873
 F      0.0473484584     3.7688685941    -1.8823423729
          12
Energy: -39.0357682634223 Kcal/mole
 H      0.6589237304     1.9429010253    -2.4988802559
 F      1.5425135812     1.8130973458    -2.2907721584
 H      2.2780227929     3.4099645704    -2.5644420363
 F      2.3529305894     4.2646375770    -2.8881886563
 H     -0.6667254747     5.3718759543    -4.9349885176
 F     -1.1397922575     5.5606388216    -5.6975273028
 H     -2.0114587964     4.1203549904    -5.3058307063
 F     -2.2450418619     3.4832875769    -4.6890057212
 H     -1.8253829923     2.5229125246    -3.1997742208
 F     -1.3016697562     2.2387824558    -2.5027207434
 H      0.8647612481     4.9839678086    -3.1145540823
 F     -0.0284760698     4.9281265859    -3.3142985484
          12
Energy: -36.52024505631458 Kcal/mole
 H     -0.1750707225     4.4097662827    -3.4531478400
 F     -0.9601677305     4.7872353999    -3.7395544631
 H     -1.6029728693     6.3791835415    -4.7285794624
 F     -1.2896741861     6.8780609253    -5.4313271347
 H     -0.4837426019     3.8607085991    -7.0171089552
 F     -0.7762764607     3.0164870975    -6.8107040190
 H     -0.8934224998     1.8610051839    -5.3497304708
 F     -0.3925833346     1.5307374350    -4.6562087735
 H      1.1606578941     2.5673167778    -4.2642045379
 F      1.4495008051     3.3176152556    -3.8231705631
 H     -0.6529942663     6.1985168595    -6.6425865029
 F     -0.4795386624     5.7069094183    -7.3969897619
          12
Energy: -36.92169227645219 Kcal/mole
 H      0.3220847647     4.6496663569    -2.3604397776
 F      0.5590895359     4.3832736398    -1.5156009417
 H      2.1613811149     4.5802884797    -1.0699267029
 F      3.0161776371     4.8763480314    -1.2201287251
 H      3.9859645679     5.8790048834    -5.2315271920
 F      3.5822766573     5.5102961409    -5.9677193776
 H      1.6716245981     5.1836738907    -6.2305296761
 F      0.8107940569     5.3473955211    -6.5008165736
 H     -0.5186585331     5.3894592947    -4.6995627367
 F     -0.1768146676     5.2151071327    -3.8667163551
 H      3.9655069810     5.8321329992    -2.6287814933
 F      4.0865276781     6.2768460842    -3.4215445493
          12
Energy: -38.58678817031161 Kcal/mole
 H     -3.0681490984     3.3992727861    -3.3006179074
 F     -3.3222585683     3.4740604977    -2.4227089284
 H     -1.5821746052     3.4129216181    -1.9680597499
 F     -0.7675817791     3.0775369276    -1.7134136484
 H      1.9994963544     1.9615841096    -4.4788711885
 F      1.8083752675     1.7014028211    -5.3371645109
 H      0.2247573635     2.0238394306    -5.4338312023
 F     -0.4763603731     2.6145819343    -5.4152243783
 H     -2.0304361554     3.4017432650    -5.3552669662
 F     -2.8309333989     3.7314092537    -5.0529203125
 H      0.8384563455     3.0062773701    -2.4173673418
 F      1.5612976916     2.8835264322    -2.9681137404
          12
Energy: -38.28642223160533 Kcal/mole
 H      0.8305144399     5.4835996148    -3.7893460941
 F      0.5053802137     5.1710866945    -2.9909023517
 H     -0.3512461246     3.7170041609    -2.5611332680
 F     -0.6649049778     2.8592214274    -2.4791826370
 H      0.2880431347     1.9977293179    -6.2705003314
 F      0.8545335656     2.0875236558    -6.9859823847
 H      2.7083141188     3.1348289283    -7.0862661903
 F      2.9314567329     3.9623829576    -6.7603049926
 H      1.8902859775     5.1457200959    -6.0293709974
 F      1.2056698906     5.5557988690    -5.5776794949
 H     -0.4416654250     2.0209875301    -4.1768504982
 F     -0.4043898537     1.3315088788    -4.7802730046
          12
Energy: -41.967527682910855 Kcal/mole
 H      0.3932335182     3.9949612078    -1.6600264731
 F     -0.0029957367     4.0627691455    -0.8358338614
 H     -1.3143986184     3.1233279657    -1.1273671844
 F     -2.1314906763     2.7297703571    -1.2628735594
 H     -3.6332964849     4.0906441919    -4.7379214512
 F     -3.2334394467     4.6685045918    -5.3270570104
 H     -1.7012906469     3.9340567663    -5.4649654600
 F     -0.8138575821     3.7033664048    -5.4765202210
 H      0.2924060467     3.8398674542    -4.0657462341
 F      0.7658957031     3.8413744090    -3.2804473901
 H     -3.2914896895     3.1055375753    -2.3447951146
 F     -3.7266877460     3.4735716691    -3.0631561363
          12
Energy: -40.36939809302325 Kcal/mole
 H      0.6517355946     3.5805460581    -1.6312367790
 F      0.7801688459     2.9214813745    -1.0067148476
 H      0.4940427402     3.7052306831     0.4758270456
 F      0.2899963049     4.0175440731     1.3135109948
 H     -3.6551362071     3.2000187582     0.7722135106
 F     -4.0696896284     3.6310669395     0.0770646586
 H     -2.9486808909     4.2788564110    -1.0571992601
 F     -2.2094072896     4.6215817741    -1.4777974862
 H     -0.7223212490     4.7660768622    -2.6559206208
 F      0.1921635849     4.7325362272    -2.5969162612
 H     -1.4835478865     3.1244848002     1.7354889487
 F     -2.3673629123     2.9592584781     1.9156562676
          12
Energy: -40.32524705143817 Kcal/mole
 H      3.2434989737    -0.2060853721    -0.3810282410
 F      3.0165076880    -0.9427967661     0.1155805367
 H      2.9351661267    -0.9425672809     1.7738925804
 F      2.9053720090    -0.8299450681     2.6834625600
 H      2.9804988069     2.7817929834     2.5752074072
 F      3.6413557645     3.3607635611     2.3126237982
 H      3.1459456707     3.2874453006     0.4309626874
 F      2.5205366286     2.8711460928    -0.0948200621
 H      3.3064144710     1.8814513748    -1.0447960767
 F      3.8200939884     1.1575218920    -1.2749013944
 H      2.1324142095     0.4945074600     2.7197974966
 F      1.8429381568     1.3566614725     2.6023961608
          12
Energy: -36.97549221498899 Kcal/mole
 H      3.7407878604    -2.6285125911     0.8982036801
 F      2.8620613372    -2.7000807961     1.1504073470
 H      3.2295028731    -1.4605741860     2.2163098034
 F      3.5840438687    -0.6157663247     2.2549020293
 H      5.4195916490     1.9093396809     1.1834223054
 F      5.1094837303     2.0395869339     0.3303351282
 H      5.3301083554     0.8555684029    -0.9178269105
 F      5.2046048356     0.1604567929    -1.5025984181
 H      5.5486359989    -1.7979353959    -0.7054877908
 F      5.3182782745    -2.2967647206     0.0286740603
 H      4.9171955601     0.3293917521     2.6081132775
 F      5.6214995222     0.9160702112     2.5825532583
          12
Energy: -40.67110190572049 Kcal/mole
 H      5.1749699317     0.1909552193     2.5569923900
 F      4.6468909737     0.6033552038     3.1830497890
 H      3.2642073619     0.9567356358     2.4941218186
 F      2.6344526020     1.0874980895     1.8405171038
 H      4.5687335340     2.3580327291    -0.4696994730
 F      5.4022006598     1.9836367724    -0.3919227559
 H      5.5790309818     0.2283551060    -0.6590862158
 F      5.4507946993    -0.6786869638    -0.6176237088
 H      6.2697440672    -0.9309984896     1.0100627443
 F      6.5438566798    -0.4721504473     1.7551867270
 H      2.6561151567     2.2825216068     0.4298114137
 F      2.9387810663     2.5951896469    -0.3845765038
          12
Energy: -41.723315920333306 Kcal/mole
 H      6.8727890737     2.8016805377     4.0679934112
 F      6.5214837673     3.4379181886     4.6271671171
 H      4.8046863235     3.1965498804     5.1201892045
 F      3.9118651661     2.9991107143     5.1893061816
 H      2.8551090312     3.2830946727     2.0731283510
 F      3.4599196397     3.0197411382     1.4361526500
 H      4.9737179915     2.2472319779     1.1894440187
 F      5.6992767905     1.7260795562     0.9824329502
 H      6.8121447832     1.4927785166     2.3148375952
 F      7.1586044245     1.2854532637     3.1381667860
 H      2.5123681214     3.1523107179     4.0032843133
 F      1.9893479953     3.5144146481     3.3428150170
          12
Energy: -41.5423159239796 Kcal/mole
 H      0.9585579323    -1.6079917917     3.4181522627
 F      1.2352277694    -2.3994061640     3.7896439755
 H      1.1049750952    -2.7991953481     5.6171127146
 F      0.9367570489    -2.7886232635     6.5184893950
 H     -1.8685007354    -0.6878320769     6.0506604367
 F     -2.0607065784    -0.5574214627     5.1635646213
 H     -2.3308347942     0.6865547751     3.7453190035
 F     -1.7573661604     1.1497353083     3.1998957553
 H     -0.2347807733     0.3666377747     3.1097130565
 F      0.5875186876    -0.0281625225     3.0156634840
 H     -0.2265365548    -1.5054766211     7.3134617931
 F     -0.9591433431    -0.9671991305     7.4336018648
          12
Energy: -43.00682857512665 Kcal/mole
 H      2.0519665620    -2.6089778078     0.7245221603
 F      2.0449145971    -3.2392789842     0.0585193850
 H      0.9879105176    -4.5056648319     0.1751978811
 F      0.3745860532    -5.1764510733     0.2967212109
 H     -2.2870906565    -3.6756501875     2.0054179020
 F     -2.4692794279    -3.3920270381     2.8582098817
 H     -0.9499618190    -2.9173780196     3.8276651860
 F     -0.1551106884    -2.5184744091     4.0512196307
 H      0.9744920449    -2.0851544569     2.9557841552
 F      1.4673939366    -1.8204729147     2.2292303677
 H     -1.0183259898    -4.3524328869     0.1077134325
 F     -1.7741214793    -3.8663194136     0.2903493251
          12
Energy: -42.973987404951785 Kcal/mole
 H      1.9451724959    -1.0232026808     1.5615324770
 F      1.4809245870    -0.9314745173     0.7760715785
 H      1.0115854963    -2.4246917057     0.1358566896
 F      0.7180204143    -3.2333366538    -0.1816364451
 H      2.7487523323    -5.9277101879     0.8411870437
 F      3.3062615468    -5.7706166948     1.5520978047
 H      3.7988473924    -4.2168056579     2.0289639101
 F      4.0635549276    -3.3840829241     2.3071576726
 H      3.1459886571    -2.2496599262     3.0800315428
 F      2.4799008081    -1.6214870700     3.0288960338
 H      1.0569737670    -4.9767810259    -0.3711608617
 F      1.5634592290    -5.7387741199    -0.3101034995
          12
Energy: -42.937959169722305 Kcal/mole
 H      3.0098156307    -0.9468939471     3.1986899026
 F      3.5576697925    -0.2310993124     3.0302177735
 H      4.8844878146    -0.4882782741     1.9581126013
 F      5.4478345287    -1.0064110170     1.4530700878
 H      4.0908502226    -4.5316674647     1.6436555751
 F      3.3795051286    -4.9907360317     1.9959810043
 H      1.5275753639    -4.6765659367     2.2069008123
 F      0.8404687424    -4.0926244655     2.3735916908
 H      1.5899972805    -2.9319211294     3.1841125402
 F      2.1037628538    -2.3273730772     3.6439555442
 H      5.3393451893    -2.7639438158     1.1269141769
 F      5.1550695109    -3.6448125165     0.9508408784
          12
Energy: -41.00789502687641 Kcal/mole
 H      2.5940263781    -0.9381617131    -0.4059937119
 F      2.9321941631    -0.1044867831    -0.5835258503
 H      4.4637148835     0.0854892011    -0.2929852787
 F      5.2930197413     0.2333074678     0.0693573945
 H      7.0634992815    -2.4863300155     2.3531016381
 F      6.8193867498    -3.2895756283     2.7220115966
 H      5.2732394105    -3.1428545322     2.1729897242
 F      4.6398964624    -2.7712591878     1.6237333085
 H      3.4191126789    -2.8173775983     0.5002829661
 F      2.6982674621    -2.7352175827    -0.0605386680
 H      6.4373367774    -0.7146491840     0.9052190647
 F      6.9468033668    -1.0017441056     1.6115541836
          12
Energy: -42.15796443942267 Kcal/mole
 H      3.4830738473     4.7114665289     0.2987537493
 F      3.7797343475     5.4402342407     0.7696881077
 H      5.0144058380     5.5584250437     2.0128374406
 F      5.4838980958     5.7718175887     2.7710785906
 H      2.4932265886     4.3231636759     4.1831394787
 F      1.7094735154     4.0446026239     3.7971033915
 H      1.0987248638     3.0109995824     2.4095587754
 F      1.1904402251     2.7454901284     1.5366429591
 H      2.3145228089     3.2155548182     0.4129506838
 F      2.8035563702     3.4687358330    -0.3202849875
 H      4.4065487019     5.2623798881     4.0925056043
 F      3.8594750515     4.8753535399     4.7184529079
          12
Energy: -41.93413483019455 Kcal/mole
 H      1.4844386434     2.1391768311     4.7681805533
 F      1.2602963303     2.6199133391     4.0201553977
 H      2.7246851757     2.3795821964     3.0929751585
 F      3.6103283913     2.4236396414     2.8593428914
 H      6.3705822330     1.3801881029     4.4190878947
 F      6.1960890307     0.4964050256     4.5904605726
 H      4.7430827326    -0.2809709598     5.0303864231
 F      3.9957308518    -0.5496797829     5.4888073374
 H      3.0429248911     0.7573393024     5.8985612126
 F      2.4789756826     1.4518473836     6.0998292316
 H      5.4009339079     3.1740288914     3.4669145071
 F      6.2330225774     3.0047255050     3.8131135963
          12
Energy: -40.98104095322721 Kcal/mole
 H      3.9755883928     4.6735651829     6.2903026046
 F      3.8417253550     3.8168735244     6.5887135451
 H      2.8847850157     2.8484458977     5.4330140942
 F      2.3166836334     2.3898477018     4.8781830260
 H      3.4472198364     2.6377336859     1.3554830791
 F      3.8134340450     3.4666017597     1.2149346192
 H      3.5965663425     4.8702231415     2.2620024634
 F      3.3432099440     5.4644417634     2.9128509594
 H      4.2212560887     5.9821494016     4.3754597202
 F      4.2580539717     6.0240407143     5.2907629671
 H      2.4388496323     1.9290321770     3.2711961884
 F      2.2937028538     1.5654991807     2.4419403935
          12
Energy: -44.24955999285365 Kcal/mole
 H      4.6638469048     5.8444556957     0.6774235553
 F      3.9454012614     6.1863988422     0.2215729853
 H      2.6954373347     5.6100964161    -0.7317997401
 F      2.2250351069     5.2060104715    -1.4073182769
 H      3.9469549659     2.2408770849    -0.8202963879
 F      4.8202695696     2.0052541463    -0.6696563080
 H      6.0829726171     3.1238175108    -0.5421837026
 F      6.7595176879     3.7193686528    -0.3733802533
 H      6.2973966070     4.6631946757     0.8778482931
 F      5.7891619624     5.1518810815     1.4641691463
 H      2.2323489938     3.6099712292    -1.2536760685
 F      2.3735647356     2.7167467157    -1.1016988242
          12
Energy: -41.57286350337927 Kcal/mole
 H     -0.2564561959     3.8900296043     0.4826138106
 F     -0.5662935523     3.2857397859     1.0988310028
 H     -0.0501564156     2.5740950921     2.6489111596
 F      0.1612498406     1.8793498521     3.2088445899
 H      3.1222080260     1.5962182610     1.8855350240
 F      3.3339778561     2.4329518500     1.5758263866
 H      3.0804279169     4.1001986370     0.8441258922
 F      3.0350626562     4.9113828973     0.4189070204
 H      1.3472936360     5.0218721800    -0.5545612719
 F      0.4313216387     5.0015386960    -0.5929129298
 H      1.3166707474     0.7405081285     2.7417282042
 F      2.0469857284     0.2931162914     2.4140552383
          12
Energy: -41.01740079403177 Kcal/mole
 H      1.3632650099    -0.0102821457     2.9118146706
 F      1.0754277065    -0.7596749554     3.3550404634
 H      1.0188417140    -0.9976718820     5.0247575109
 F      1.2508756419    -1.0352472621     5.9111193711
 H      3.4139153111     2.1016783452     6.4333445771
 F      4.2324601607     2.3329223252     6.0907083983
 H      4.3943907151     2.1513921721     4.4398333661
 F      4.7074520430     2.0340192056     3.5859567990
 H      3.0596796286     1.9042832478     2.5685329183
 F      2.2709967596     1.4942289260     2.3433135022
 H      1.5572971539     0.7245630731     6.4511945149
 F      1.7179231595     1.6264621011     6.4920164417
          12
Energy: -41.7044081802167 Kcal/mole
 H      5.2490768808     2.0129013941     4.8353639976
 F      4.9748879927     2.7783267166     5.2594318332
 H      5.5204831846     4.0832073789     6.0374290699
 F      5.7158629853     4.9686813817     6.1739996517
 H      6.2474920785     5.1735732399     2.3639275817
 F      5.7690712721     4.7023978949     1.7394307231
 H      4.9749347846     3.1524174736     1.7612278970
 F      4.6759237934     2.2897337625     1.8464232128
 H      5.3737435951     1.2482982835     3.0165410837
 F      5.6177032829     0.7875716425     3.7709306600
 H      6.2428177215     5.9853098337     4.9057228058
 F      6.5615261889     6.2060276988     4.0747008224
          12
Energy: -43.25070818884093 Kcal/mole
 H      4.1661741809     0.8337975522     2.4464289075
 F      4.9700473405     1.0758620400     2.0775363393
 H      4.9280665872     2.4233220145     1.1155084258
 F      4.6779527471     3.0564540915     0.5011178008
 H      1.2332271868     2.9004156908    -0.6910446202
 F      0.4526271044     2.4640184529    -0.4882887028
 H      0.1257289520     1.9325757676     1.1691948497
 F      0.2296676524     1.6931909788     2.0482742940
 H      1.7023682760     0.9745493238     2.6412694297
 F      2.4659036630     0.5387045988     2.9019264620
 H      3.5474830360     3.4119269238    -0.8420843517
 F      2.7520934945     3.7363095518    -1.1630522442
          12
Energy: -42.53453116296302 Kcal/mole
 H      3.2748272254     1.2032768372     2.1809170607
 F      3.3473518190     0.5363206441     1.5557781802
 H      4.4182092322     1.3381642931     0.5761609346
 F      4.8858327434     2.0101623763     0.1630800369
 H      4.6565994160     5.1785997750     0.1763593456
 F      5.3197659801     5.5658173313     0.6775196715
 H      5.4978519186     4.7490842743     2.2356169922
 F      5.1756246928     4.3293391388     2.9845312971
 H      3.7853323637     3.3014688860     3.2420754263
 F      3.1337756838     2.6562608032     3.2337433865
 H      3.8616187897     3.4361991257    -0.3537056792
 F      3.4405778391     4.2401719664    -0.4850113884
          12
Energy: -42.416330244109176 Kcal/mole
 H      0.2286590506     1.9994287575     0.3899071641
 F      0.8206201112     1.4434602152    -0.0359685016
 H      2.4380091695     2.0427084742    -0.4231670428
 F      3.0888801050     2.6869042436    -0.3755452405
 H      3.0608156471     4.8485735153     2.6022326731
 F      2.6378652366     5.6317865479     2.8226397867
 H      0.9192858196     5.6179821141     2.9349049205
 F      0.1408638901     5.1833642510     2.7202992057
 H     -0.4763002576     3.7377577815     1.8662042136
 F     -0.8735353546     3.0774632936     1.3691081796
 H      3.4419124706     3.1113824200     1.1425994547
 F      3.4190197156     3.3293201923     2.0330308384
          12
Energy: -43.323715263636146 Kcal/mole
 H     -3.8293231308     2.4390880411    -0.1871880695
 F     -3.4179646790     1.6954956750    -0.5317800270
 H     -1.8933149078     1.6386748879    -0.0397779115
 F     -1.0098424540     1.7429995287     0.1826671216
 H     -0.2060764056     4.8469305497     1.5389632177
 F     -0.5663123404     5.6875253574     1.4717364328
 H     -2.0461635209     5.8276667194     0.4763392807
 F     -2.9336392417     5.7224337683     0.2709083410
 H     -4.0336929471     4.4330867818     0.5850122407
 F     -4.4974819338     3.6421133243     0.5972501064
 H     -0.1420189515     2.5512986051     1.2254464415
 F      0.2352092933     3.2537736824     1.6783444622
          12
Energy: -44.204212346861624 Kcal/mole
 H     -1.3624920614     2.1221865754     0.4232078764
 F     -0.4733174815     1.9386877239     0.5519935044
 H      0.4651741819     2.2107335154     2.0102740508
 F      0.9872279986     2.3927808043     2.7418528894
 H     -0.7427266226     5.8751221093     2.5596600610
 F     -1.5559187698     6.1081235950     2.2056574628
 H     -2.8239080713     5.4445024064     1.3184531465
 F     -3.5182691685     4.9430563733     0.9908809521
 H     -3.2266259501     3.4653720385     0.4829734670
 F     -2.9317771785     2.6386819866     0.2173858922
 H      1.0151762431     4.0855949188     3.1181283192
 F      0.7811424731     4.9720231911     3.1371575747
          12
Energy: -43.12601391104164 Kcal/mole
 H     -0.9702786921     2.1835080214     0.2537426915
 F     -0.5883746071     1.3657280027     0.4158355995
 H      0.8776265154     0.8615058113    -0.3751438098
 F      1.6055846204     0.8343886806    -0.9321273451
 H      2.0415250824     4.4494025147    -1.1225916250
 F      2.0722795439     5.1078971526    -0.4851530201
 H      0.9350701109     5.2212871739     0.6459949146
 F      0.1622334255     5.1772841791     1.1376006449
 H     -0.9267315063     4.2812025946     0.4848885744
 F     -1.5006891738     3.6726570564     0.1092106221
 H      2.1527751785     2.3043108273    -1.8455744675
 F      2.4038586306     3.1714973571    -2.0063028806
          12
Energy: -44.00300114940393 Kcal/mole
 H     -2.9611863130     3.0772604682     0.3054649082
 F     -3.1049223845     2.9872012011    -0.5957111402
 H     -2.2152912184     3.7865042667    -1.8376678270
 F     -1.8204825383     4.4258443961    -2.3632715799
 H     -1.0885009756     6.8210587534    -0.2813208863
 F     -1.1543390315     6.6468339996     0.6165655684
 H     -2.7545026630     6.3327313372     1.3085637195
 F     -3.5295360899     6.0455043573     1.7056944903
 H     -3.1315675393     4.3766203711     1.9490900258
 F     -2.8128660591     3.5223257711     1.8516266840
 H     -1.5757391857     6.0575458355    -2.1994366167
 F     -1.2400481186     6.8526645679    -1.8896193982
          12
Energy: -44.15566828416391 Kcal/mole
 H     -0.4974608701     2.5612860830    -2.1513236126
 F     -0.5526383859     2.7926254402    -3.0369457350
 H     -1.9446806510     3.7633904965    -3.4663925402
 F     -2.5729350980     4.4064521047    -3.6471053448
 H     -2.2273725696     6.9748513579    -1.3262392674
 F     -1.9795283280     6.8439626507    -0.4531239381
 H     -0.9664284334     5.5094927487    -0.1796085618
 F     -0.3297588786     4.8827190400     0.0270205649
 H     -0.4012239101     3.2173789388    -0.0899811884
 F     -0.3591145714     2.3998863854    -0.5032870420
 H     -2.6846249572     6.0100596205    -3.1959006668
 F     -2.6189656467     6.8893023345    -2.9438885543
          12
Energy: -44.14879654978603 Kcal/mole
 H     -4.1826750176     2.6700798472     0.1921409012
 F     -4.5158284771     2.5555718049    -0.6544910618
 H     -3.7481933849     3.0961324507    -2.1088647577
 F     -3.3662163533     3.5164009104    -2.8288348745
 H     -3.5949133957     6.3926956058    -0.6773477171
 F     -3.6830532041     6.5187768465     0.2266566496
 H     -2.6757674261     5.6707633491     1.3413704820
 F     -2.2476595178     5.0867374243     1.9039772167
 H     -2.9586563688     3.5318331419     1.8781775559
 F     -3.5124000618     2.8039743755     1.8112556722
 H     -3.2730183847     5.1798176543    -2.7052658070
 F     -3.4097787187     5.9945663646    -2.3073083343
          12
Energy: -44.560752143134195 Kcal/mole
 H     -6.0378225526     5.3556425708     0.1633082482
 F     -6.3018960479     5.2240931251    -0.7049364940
 H     -4.9541757161     4.4510484794    -1.4952535538
 F     -4.1394045361     4.1923151782    -1.8270577175
 H     -1.4184378879     4.9734544991     0.6786262004
 F     -1.3135296094     4.8956429530     1.5862762522
 H     -2.4507291346     5.3184280604     2.5839939426
 F     -3.1939444569     5.5861896440     3.0496372816
 H     -4.5856977168     5.6104305326     2.2564142191
 F     -5.3142103868     5.5559865849     1.7021632414
 H     -2.7180530833     4.9001563429    -1.2316550147
 F     -2.0652749124     5.3817544187    -0.8040653131
          12
Energy: -44.13082446331926 Kcal/mole
 H     -5.1040356404     6.3659337072    -0.4990395225
 F     -4.8361906267     6.2882680493    -1.3726046857
 H     -3.4350530235     5.8399143605    -2.3707911944
 F     -2.6512404694     5.7475775121    -2.8376967377
 H     -0.7968848988     6.8410853554     0.2422183767
 F     -0.8304469002     6.9033293381     1.1564876360
 H     -2.2872055625     7.1342991480     1.8397712787
 F     -3.1297583621     7.3734129059     2.1114666791
 H     -4.6370473491     7.1560086298     1.4663869037
 F     -5.4200317693     6.8858551630     1.0728878541
 H     -1.3069278149     6.3423224940    -2.1353389214
 F     -0.6815795360     6.6738715408    -1.5523262632
          12
Energy: -44.66051640703549 Kcal/mole
 H     -4.6182278680     6.5338568616     0.4943566971
 F     -4.8350775781     6.6018807865    -0.3940339540
 H     -4.6668756673     5.1476526845    -1.2249081649
 F     -4.4577078360     4.3331035569    -1.5904865245
 H     -1.2837895727     3.9710045421     0.2476482542
 F     -1.0716206192     4.0650180543     1.1347980695
 H     -2.3894025044     3.8967242873     2.1280775743
 F     -3.0851868185     3.9426937557     2.7236109454
 H     -3.8574794790     5.4242384867     2.4169148934
 F     -4.1823269439     6.2201136806     2.0976253692
 H     -2.9285861626     4.0254616027    -1.5160788615
 F     -2.0604297137     3.8962828515    -1.2505487680
          12
Energy: -44.44710733224224 Kcal/mole
 H     -6.3334520891     4.5981363735     0.4046695492
 F     -6.3161843902     4.8787404221    -0.4681718995
 H     -5.2878417804     5.5362294904    -1.6793392495
 F     -4.5922465797     5.8598476217    -2.1816415705
 H     -2.1423194460     4.2410702959     0.5661173011
 F     -2.0803544114     4.0124643130     1.4520002725
 H     -3.2429862578     4.3052006441     2.5396581101
 F     -3.9555612096     4.6338156959     3.0141452920
 H     -5.4100266079     4.3902286439     2.4767564187
 F     -6.1610566607     4.2183263841     1.9794713166
 H     -3.2826302331     5.0768064117    -1.5106463482
 F     -2.6870200410     4.5390115913    -1.0668961592
          12
Energy: -45.09430638607503 Kcal/mole
 H     -5.5237969726     3.4993995503    -0.2383394346
 F     -5.4806271067     3.6219590448    -1.1460863888
 H     -4.2972923819     3.5505646215    -2.2478927910
 F     -3.5564858821     3.4184219895    -2.7719472297
 H     -1.3493490397     1.9928390553    -0.8265975894
 F     -1.0414112171     2.4207419568    -0.0762893832
 H     -2.1103005570     2.5328645048     1.1582606767
 F     -2.7504973275     2.5512771262     1.8145365870
 H     -4.4857391405     2.8887053830     1.6313131922
 F     -5.3442351176     3.0588593320     1.3575956533
 H     -2.5295753021     2.0814752275    -2.5779922840
 F     -2.0544563901     1.3878740735    -2.2118386840
          12
Energy: -44.961765919176145 Kcal/mole
 H     -5.2899498808     1.9716123107    -0.6110634757
 F     -5.6058738996     1.9447904578    -1.4715061540
 H     -4.4968673290     2.0729440091    -2.6898863181
 F     -3.8098657921     2.0839211380    -3.2971732280
 H     -0.8238243505     2.8245012631    -1.0993899033
 F     -0.4765991217     2.6972002787    -0.2602724503
 H     -1.4688219484     3.0931719490     1.0265607306
 F     -2.1453951807     3.2859542755     1.6147551168
 H     -3.7871694884     2.7045516839     1.2861976832
 F     -4.5568970786     2.3048918771     0.9884050108
 H     -2.4183296283     2.7949459492    -2.8558094352
 F     -1.6317127104     3.1759924442    -2.5784533587
          12
Energy: -45.45434351385316 Kcal/mole
 H     -5.0497212822     3.4290991914    -0.9243226510
 F     -5.2518362179     3.5458197259    -1.8111230060
 H     -4.3083273129     2.7708898719    -2.8676991451
 F     -3.8037650580     2.3696249105    -3.5198435783
 H     -0.9753799357     1.9215785817    -1.7542742946
 F     -0.9014460659     1.7378905788    -0.8589076097
 H     -1.3659908218     2.8994107783     0.2576289345
 F     -1.8276518990     3.5004420876     0.7738841184
 H     -3.4900909022     3.3039084966     0.6954516695
 F     -4.3817677253     3.1291432777     0.5719261200
 H     -2.1109007415     2.3295248118    -3.5137183732
 F     -1.2226098675     2.3799251248    -3.2917090682
          12
Energy: -45.77229004648299 Kcal/mole
 H     -5.0364117130     4.1293916125    -1.4331594551
 F     -4.9230602075     4.3614739531    -2.3130334367
 H     -3.8209993562     3.6052901687    -3.2828225887
 F     -3.1768557542     3.1235006584    -3.7231030536
 H     -0.8782270022     2.6808545491    -1.2438588832
 F     -0.7867327422     3.2000221683    -0.4935370966
 H     -1.9086221227     3.3467652206     0.7248676130
 F     -2.6104572254     3.4283340583     1.3093870851
 H     -4.1594256395     3.5664550083     0.6589685587
 F     -4.9316010689     3.6670865179     0.1747089120
 H     -1.9780129586     2.2541233552    -3.0387046281
 F     -1.3413139469     1.7977254579    -2.5620450769
          12
Energy: -45.52375415370528 Kcal/mole
 H     -4.6786832584     5.2133797373    -1.2695272840
 F     -4.9476037472     4.8563002606    -2.0701926436
 H     -4.3160489456     3.3812767590    -2.6860920405
 F     -3.8660455527     2.6253918639    -2.9449819239
 H     -0.6659495458     3.0244798334    -0.9687143835
 F     -0.3663598533     3.5109134010    -0.2514157006
 H     -1.4514490361     4.1373494527     0.8450337594
 F     -2.1435696249     4.4479052204     1.3602164511
 H     -3.5044549506     5.2425747878     0.7483160114
 F     -4.1730327767     5.6389000600     0.2616755188
 H     -2.3570981743     2.2383836191    -2.4510852434
 F     -1.5245765156     2.0685637501    -2.1061825038
          12
Energy: -45.82745652984286 Kcal/mole
 H     -4.6339262173     5.0395060555    -1.0551689551
 F     -4.9284973587     4.4293970860    -1.6731365011
 H     -3.9093898136     3.8123278537    -2.8522240809
 F     -3.2091468137     3.4410348563    -3.3134076139
 H     -1.0882407371     2.5033181245    -0.6491120799
 F     -0.7836555040     3.0013791151     0.0580315304
 H     -1.7383422695     3.8685551555     1.1364910003
 F     -2.3418293016     4.3672656362     1.6139637835
 H     -3.2851638381     5.4099629307     0.7145852356
 F     -3.8250536337     5.9028889685     0.1610222943
 H     -2.2518307288     2.3009094636    -2.5238265941
 F     -1.7651649764     1.7805563456    -1.9465241794
          12
Energy: -45.97225998410977 Kcal/mole
 H     -4.7457483410     4.8867939687    -0.9338011223
 F     -5.0649221395     4.3583210256    -1.6118375777
 H     -4.0208853097     3.6665151591    -2.6830907964
 F     -3.3722536531     3.2436403312    -3.1743573778
 H     -1.1896162225     2.3223927750    -0.5245389798
 F     -0.9038760516     2.8325906510     0.1818176455
 H     -1.8981573942     3.6635804229     1.1810611976
 F     -2.5155761955     4.1246648551     1.6781368157
 H     -3.5437415301     5.1831519720     0.9145895891
 F     -4.0611330417     5.6863147855     0.3488845363
 H     -2.4342125713     2.1452006246    -2.3742109640
 F     -1.9207540402     1.6247840339    -1.8206624936
          12
Energy: -46.08060791621875 Kcal/mole
 H     -4.7853694338     4.8884875972    -0.9130879039
 F     -5.0789507139     4.3638788556    -1.6055362415
 H     -4.0308582729     3.6579767584    -2.6891324814
 F     -3.3717246105     3.2440932737    -3.1740368804
 H     -1.1801971331     2.3888146795    -0.5534517378
 F     -0.8672727635     2.8988396719     0.1414164842
 H     -1.8779869680     3.6748109603     1.1965150673
 F     -2.5166461900     4.1240691011     1.6773170236
 H     -3.5210758532     5.1879723409     0.8973713905
 F     -4.0623354035     5.6860590761     0.3497979220
 H     -2.4267550440     2.1459994464    -2.3802887389
 F     -1.9211496448     1.6247416583    -1.8203400817
