          12
Energy: -45.995011225267035 Kcal/mole
 H      0.2020695375     2.3781302186     0.4928875689
 F     -0.4473970059     2.0177521153     1.0306698962
 H     -1.4679753539     3.0045364215     1.8903312927
 F     -1.9233661981     3.6279227778     2.3852026192
 H      0.9295291608     5.0966705907     3.8870273614
 F      1.7875089078     5.1507479430     3.5679107784
 H      2.0771323378     5.2894662812     1.9413825651
 F      2.1340387608     5.2875070826     1.0261520911
 H      1.7051140868     3.9750120800     0.0931711904
 F      1.3745680187     3.2224182098    -0.3133146806
 H     -1.1952187670     4.4570863706     3.6314451533
 F     -0.6725762086     4.8991246573     4.2416384910
