          12
Energy: -44.58571782327134 Kcal/mole
 H     -0.4338434074    -2.4075631374    -4.2755180028
 F     -1.1694940171    -2.5037112995    -4.8144639290
 H     -2.5785423613    -1.5778839187    -4.9848669969
 F     -3.2977026913    -1.0148594197    -5.0667256141
 H     -2.0482193951     0.7225153861    -1.7683237499
 F     -1.6553946900     0.8095835445    -0.9443110759
 H     -0.2824597852    -0.0752505696    -0.8852866835
 F      0.4104514645    -0.6557280433    -1.0395880204
 H      0.7891554344    -1.7049671351    -2.2894341008
 F      0.7700929708    -2.2423288225    -3.0322450050
 H     -3.1464011233     0.1587581602    -3.8808890766
 F     -2.9010063306     0.7406560474    -3.2160092043
          12
Energy: -43.98496681677014 Kcal/mole
 H     -0.9698134541    -1.8349816594    -3.6996176721
 F     -1.7932163219    -2.2352515325    -3.7513935922
 H     -3.2016418966    -1.9566702435    -4.5085100529
 F     -3.9481330427    -1.9723936905    -5.0408565021
 H     -2.2687612019     0.2528121469    -7.2820792084
 F     -1.5257659053     0.7893419120    -7.2507295618
 H     -0.2012072788     0.3513874596    -6.4829470367
 F      0.5442561734     0.1025178925    -6.0104672169
 H      0.6528251724    -0.8852045204    -4.5814369483
 F      0.5699406503    -1.2543283810    -3.7461126212
 H     -3.7395390609    -1.4096943687    -6.6027688066
 F     -3.4623090563    -0.8831792702    -7.3004896502
          12
Energy: -43.429849872703215 Kcal/mole
 H     -4.1762543640    -0.7755869328    -4.5375916778
 F     -4.8938819402    -1.3430160553    -4.4749510128
 H     -6.3973855545    -1.1904862763    -5.1481938248
 F     -7.1401731871    -0.9090609595    -5.6064026461
 H     -5.3961123779     2.6162972030    -6.3063473488
 F     -4.8408023127     3.3187387130    -6.1086211325
 H     -3.2711266086     2.8095669009    -5.8904375047
 F     -2.4689509209     2.3672863283    -5.8481165734
 H     -2.7766613230     0.9905260395    -4.7866644638
 F     -2.8949114503     0.2172038761    -4.3082517350
 H     -6.7394759894     0.4024242571    -6.4249267840
 F     -6.4214681547     1.2162882539    -6.7031091195
          12
Energy: -43.71000181915362 Kcal/mole
 H     -3.5351486179    -1.4578524888    -6.3749081986
 F     -4.2805741501    -1.9258493478    -6.6322187423
 H     -5.5732806168    -0.9973700178    -6.4763355631
 F     -6.3271452063    -0.4780444283    -6.4226875176
 H     -5.8885409273     2.3440520574    -4.4114653795
 F     -5.2270902804     2.9732692587    -4.4978236758
 H     -3.7767671734     2.6752122520    -5.1835384584
 F     -3.0605831821     2.2689283797    -5.5871507796
 H     -2.4153052357     0.6314400161    -5.7879605693
 F     -2.2313673078    -0.2390357658    -6.0100590877
 H     -6.8840280108     0.5213658195    -5.3301435748
 F     -7.1045192788     1.1813541752    -4.7329099763
          12
Energy: -44.031731726299995 Kcal/mole
 H     -3.6455841155    -2.2448002926    -4.5285577055
 F     -4.1796974784    -2.4672054225    -5.2399984083
 H     -5.5669822936    -1.5491976100    -5.0725967390
 F     -6.2402168455    -0.9278248021    -5.0333529897
 H     -3.8765855304     1.1770566255    -6.6945657897
 F     -2.9685872234     1.2517574448    -6.7987188603
 H     -1.9275846985     1.1335947558    -5.4188819257
 F     -1.4308503610     0.9338639568    -4.6744011631
 H     -1.9226025260    -0.5292224233    -4.0621536859
 F     -2.3768743664    -1.2626788346    -3.7514001054
 H     -5.8662892532     0.4047878548    -6.0812602557
 F     -5.4911692215     1.0614028414    -6.5999419704
          12
Energy: -43.83674383536123 Kcal/mole
 H     -1.8415216128    -1.6103944775    -1.7827708724
 F     -1.0437113735    -1.6356208164    -2.2341592349
 H     -0.4732572253    -1.0868395837    -3.6402389935
 F     -0.2733615720    -0.7492736269    -4.4690815314
 H     -4.0165231597    -0.4294444029    -5.7003695918
 F     -4.7370015696    -0.5035514241    -5.1379569228
 H     -5.0489835442    -0.0441627239    -3.4295479476
 F     -5.0037200220     0.0821464628    -2.5224171947
 H     -4.1066699423    -0.9347613311    -1.4337764285
 F     -3.4568164353    -1.4295686687    -1.0169489845
 H     -1.6158879336    -0.3772026061    -5.5710271042
 F     -2.3017272077    -0.1852997431    -6.1486833872
          12
Energy: -44.370026763934405 Kcal/mole
 H     -1.8606380708    -5.6433925503    -3.1970320018
 F     -1.0670826276    -5.4840080522    -3.6280254360
 H     -1.0196435467    -4.1773332612    -4.6336692193
 F     -1.0084860787    -3.4621683764    -5.2075191113
 H     -4.7816217575    -2.6158056491    -5.5396305283
 F     -5.6003648202    -2.9019026306    -5.2418095850
 H     -5.6629789628    -3.8231875211    -3.8060134731
 F     -5.4626079694    -4.2722639799    -3.0320168328
 H     -4.0819138801    -5.1475443445    -2.7540327167
 F     -3.3961021940    -5.7561304595    -2.7408315101
 H     -2.3864724842    -2.9456283134    -5.8775370958
 F     -3.1824265009    -2.5635732204    -6.1252871901
          12
Energy: -44.164104251920065 Kcal/mole
 H     -1.1471293198    -2.9014861375    -2.6716171330
 F     -0.3936120018    -3.1134171278    -3.1493052182
 H     -0.7667766969    -4.5649689426    -3.7343031358
 F     -1.0881817252    -5.3165782361    -4.1498404720
 H     -4.5371142742    -5.4149278053    -4.3039062024
 F     -5.2298894418    -5.1758385291    -3.7527366412
 H     -5.3319895929    -3.9085543687    -2.6613184315
 F     -5.1781887738    -3.1936869841    -2.1079659846
 H     -3.6237148227    -2.8177182619    -1.8825744373
 F     -2.7236538123    -2.6701628054    -1.9774773601
 H     -2.4181883544    -5.4622002407    -4.9488937050
 F     -3.2161587274    -5.6095025945    -5.3760169896
          12
Energy: -44.30520023323707 Kcal/mole
 H     -3.0771067871    -2.1015735195    -0.9190285913
 F     -2.6207716037    -2.8818434657    -0.7646718243
 H     -2.8058576186    -4.3123973135    -1.6092199373
 F     -2.9002912084    -5.0658916623    -2.1232409131
 H     -4.8668229290    -3.8111034000    -4.9083694130
 F     -4.8279852209    -3.0062137408    -5.3460145533
 H     -4.7273012896    -1.5997897376    -4.3489741221
 F     -4.7024622561    -0.8878142976    -3.7715981654
 H     -4.1368626332    -0.6356774011    -2.1714164649
 F     -3.8858605948    -0.6104346676    -1.2897987580
 H     -4.0223852049    -5.1458803015    -3.2952281200
 F     -4.5402176242    -5.2056153458    -4.0496618879
          12
Energy: -42.121482250164775 Kcal/mole
 H     -4.7457856488    -2.0961578942    -0.2748203291
 F     -5.2054381767    -2.7823499646     0.1236128473
 H     -5.1201752340    -4.5037257830    -0.2347381979
 F     -5.0203680501    -5.1491505931    -0.8784418102
 H     -2.0271762643    -5.1532509856    -2.7498171401
 F     -1.8547225321    -4.3366387914    -3.1296766331
 H     -2.8538697595    -2.9839075897    -3.1712174796
 F     -3.4268669009    -2.3061187859    -3.4017941768
 H     -3.9388341581    -1.4218285756    -2.1087985460
 F     -4.0162457229    -0.9841023104    -1.3067435813
 H     -3.6152257941    -6.1691111167    -1.5853354728
 F     -2.8900731460    -6.4702506992    -2.0589994768
          12
Energy: -44.370313277276836 Kcal/mole
 H     -2.2785819771    -0.4837055971     0.9013052236
 F     -2.3125168646    -0.5265117908     1.8166767620
 H     -2.8075080346    -2.0547011731     2.2314213284
 F     -3.0413351735    -2.9411870349     2.2125351951
 H     -0.9749389655    -4.5900533660    -0.4081200973
 F     -0.8904892187    -4.5190581411    -1.3184590003
 H     -0.8589564493    -2.8862484028    -1.8408091326
 F     -1.0606119051    -2.0370839916    -2.1221343534
 H     -1.9656022030    -0.7907726495    -1.3419030471
 F     -2.4107422329    -0.2810614253    -0.7230865786
 H     -1.7799381273    -3.8748377524     1.7721991098
 F     -1.0732437490    -4.2872315891     1.3581901981
          12
Energy: -44.3745820003884 Kcal/mole
 H      3.4243948486    -1.5486440797    -1.6397495551
 F      3.2100554228    -2.0616515077    -0.9105232601
 H      1.6503711160    -2.9514722820    -1.1537205489
 F      0.8086564347    -3.2236274951    -1.3952509514
 H     -0.7416804976    -1.3726289000    -3.9497418848
 F     -0.3104069535    -0.7971462407    -4.5186986837
 H      1.1504491842     0.0954096983    -4.3228660516
 F      1.9075588203     0.5250278447    -4.0345914477
 H      3.1316652834    -0.2606342919    -3.4317227556
 F      3.8374958720    -0.6933239311    -3.0374235592
 H     -0.5176742108    -2.8087378058    -2.2771056062
 F     -1.2238399605    -2.5310724266    -2.7920045003
          12
Energy: -43.840563152081245 Kcal/mole
 H      2.0545254873    -4.5099759601     1.0222246692
 F      1.3641246865    -3.9517260956     1.2515559207
 H      0.0721347451    -2.9606312316     0.6889832238
 F     -0.6117746200    -2.5500636040     0.2366656325
 H      0.5379113578    -3.3493023521    -3.3097528613
 F      1.3382363393    -3.5708922996    -3.6986832138
 H      2.6261012264    -4.0628317398    -2.7852097147
 F      3.4235001883    -4.2584443420    -2.3768231266
 H      3.5357542806    -4.7919255091    -0.7390405586
 F      3.4618063929    -5.2285987418     0.0639147314
 H     -0.7358489261    -2.7021401089    -1.4082107025
 F     -0.6877553833    -2.8928412014    -2.3038719691
          12
Energy: -43.99627137152436 Kcal/mole
 H      2.5016017148    -4.1180071753     0.3301100376
 F      2.0941526044    -4.7590280709     0.8438866758
 H      0.6178663075    -5.2306680301     0.7207234042
 F     -0.2637167583    -5.3741579946     0.5130916916
 H     -0.2983906947    -4.2773191623    -2.7536175414
 F     -0.3012381448    -3.4225192911    -3.0855784914
 H      0.9018729624    -2.3552695767    -2.7994293424
 F      1.5896476019    -1.7808243889    -2.6048329101
 H      2.4066116929    -2.2345776196    -1.1811570074
 F      2.7587913077    -2.5782276165    -0.4073591019
 H     -0.2546597204    -5.7812837168    -1.1162226129
 F     -0.2694477703    -5.7745950896    -2.0330789680
          12
Energy: -43.93973993709611 Kcal/mole
 H      0.0194999160    -3.3417874409     0.2010012788
 F     -0.2188566593    -3.9991565572     0.7942474233
 H      0.2429751348    -5.7841023210     0.8393306306
 F      0.3783505535    -6.5806994041     0.4057460562
 H     -0.5913913188    -5.3998837926    -2.6542716867
 F     -0.8024630986    -4.5473302696    -2.9178816149
 H      0.3424225481    -3.4696158083    -3.3226968427
 F      1.0396795518    -2.8762458098    -3.2713771031
 H      0.8507356170    -2.2426666176    -1.7355202237
 F      0.5750421127    -2.0332552431    -0.8863859776
 H      0.2384886968    -6.8291683485    -1.2372459233
 F      0.0664760900    -6.8208729804    -2.1379300244
          12
Energy: -43.80299877018231 Kcal/mole
 H      2.3964231529    -1.7782912263     2.1641715008
 F      2.9041668076    -2.5213166630     2.3402356415
 H      3.0990120007    -3.7653798140     1.1438432309
 F      2.9232335746    -4.4076911073     0.5134249987
 H      0.2277605001    -3.6296195015    -1.2069230419
 F      0.2666811576    -3.1401122170    -1.9813627109
 H      1.1546584376    -1.6566319462    -1.5925765914
 F      1.4697335818    -0.9344924384    -1.1233951928
 H      1.5720705280    -0.4619156876     0.5988273701
 F      1.5632524988    -0.5743270023     1.5088685443
 H      1.1985647922    -4.5632541952     0.3448150877
 F      0.3100236727    -4.4284508265     0.1625742284
          12
Energy: -43.77283747263462 Kcal/mole
 H      4.8816208655    -1.6950668736    -1.2373428869
 F      5.0258106105    -2.4211412974    -0.6961273581
 H      3.5477931607    -3.0008169076    -0.1602050467
 F      2.7477671416    -3.3507776048     0.1197500910
 H      0.7154712851    -3.0570430814    -2.9564713572
 F      0.8475224849    -2.6529868862    -3.7689921703
 H      1.7494796858    -1.3295651698    -4.2634948765
 F      2.4251432513    -0.7201876740    -4.3776299448
 H      3.8340984573    -0.5949733189    -3.2537089581
 F      4.4001228054    -0.4677729894    -2.5435501635
 H      1.3440169764    -3.7898741653    -0.7616511405
 F      0.6999580520    -3.7857321796    -1.4143838161
          12
Energy: -44.70046925880273 Kcal/mole
 H      4.6242798062    -2.0325754924    -4.1373029413
 F      4.2556713140    -2.8613991764    -4.0028853813
 H      2.6157769505    -2.9150763093    -3.5898257021
 F      1.7107564048    -2.9083489773    -3.4422399481
 H      1.0474314666     0.5029257885    -2.3930364823
 F      1.3887720934     1.3512179159    -2.3239275601
 H      2.8908244060     1.6260018392    -3.1215380606
 F      3.7563222864     1.6192840731    -3.4244527194
 H      4.6396669226     0.2478026816    -3.9226556815
 F      5.0894318853    -0.4685643209    -4.2768008439
 H      0.7771253418    -1.6711232294    -2.8402517454
 F      0.3725397258    -0.9614466826    -2.4236480031
          12
Energy: -44.590897458787126 Kcal/mole
 H      4.3375888037    -2.0975681090    -1.2256452587
 F      3.7258486927    -2.5244188608    -1.7589945555
 H      2.7387639487    -1.3712291554    -2.1937870074
 F      2.2317192551    -0.6283122010    -2.3723061311
 H      4.1124386191     1.2881645855    -4.4376432905
 F      5.0098772339     1.2504770288    -4.2530556940
 H      5.8825789203     1.1024930424    -2.6753360833
 F      6.2763046633     0.9035574631    -1.8714121599
 H      5.8541382048    -0.4330398657    -0.9520922731
 F      5.5978702899    -1.2215426511    -0.5603281691
 H      2.2337432209     0.4876671599    -3.6723287882
 F      2.4702762862     0.9990571807    -4.3958074373
          12
Energy: -44.841995491253286 Kcal/mole
 H      2.1256072852     0.7647064856     0.6832465268
 F      2.2940832009    -0.0781086362     0.3636099578
 H      3.3729435639    -0.3243407633    -0.8983344472
 F      3.9686433433    -0.3060496596    -1.5952535302
 H      4.4354892600     3.4851919399    -2.7584394736
 F      4.2906528702     4.3492918432    -2.4878054453
 H      3.1982193462     4.4218686429    -1.3007723071
 F      2.5617658553     4.3243153062    -0.6478563091
 H      2.2432112510     3.0746868584     0.5233730309
 F      2.1272281161     2.3913494792     1.1237786760
 H      4.3128350549     1.0620291815    -2.3893244826
 F      4.3180020931     1.8026295369    -2.9300401337
          12
Energy: -44.96261038785153 Kcal/mole
 H      2.7182744016     2.3547683164     1.5427009026
 F      3.5427003646     2.3729275418     1.9438007331
 H      4.7526949195     2.2244462364     0.8961218583
 F      5.4027994282     2.1208086954     0.2577548886
 H      4.1402232257     2.4060437732    -3.0093037077
 F      3.4257169906     2.8129534297    -3.4152524378
 H      2.0065384630     2.4602772291    -2.6922538383
 F      1.2516268697     2.3252194484    -2.1895045149
 H      1.2387043568     2.4336897999    -0.4537475263
 F      1.3621635036     2.4621309464     0.4544583646
 H      5.5129324002     1.7513721034    -1.4076851613
 F      5.3421118417     1.6603387839    -2.3040234186
          12
Energy: -43.83677253022147 Kcal/mole
 H      3.9212481769     1.4740861675    -0.2823712630
 F      4.6155552935     1.9806154399     0.0374016629
 H      6.0286515385     2.3822474709    -0.7105205608
 F      6.7139950349     2.4415758666    -1.3168813720
 H      4.9652617801     3.9096390846    -4.1994504881
 F      4.0659819808     3.8928030702    -4.3780600934
 H      2.8611890984     2.9982764743    -3.5419851571
 F      2.2927529735     2.4841937959    -3.0385088700
 H      2.3885205429     1.4350470199    -1.7019602846
 F      2.4714506002     0.9064536558    -0.9572451303
 H      6.5867060037     3.5439438050    -2.5773179444
 F      6.3704234253     3.9256723584    -3.3825472023
          12
Energy: -44.69306350080083 Kcal/mole
 H      4.4262102560     3.8017641883    -0.7439512772
 F      4.9013491218     4.2971416156    -0.1358943204
 H      5.9434735062     5.5161474427    -0.5501263086
 F      6.3497930795     6.2828106527    -0.8468095181
 H      4.9470936291     6.3591828004    -4.3226439379
 F      4.9006987590     5.7455857118    -5.0025226982
 H      4.3759027849     4.2193532998    -4.6896813405
 F      4.0529779665     3.4218683931    -4.3724647185
 H      3.7544930831     3.0721858247    -2.8551706838
 F      3.6900161402     2.9123802072    -1.9545076567
 H      5.4677622803     6.8477151340    -1.9849202104
 F      4.9514819263     7.0062185448    -2.7260141753
          12
Energy: -44.38991949520087 Kcal/mole
 H      5.6205057112     2.5249027923    -3.4901336488
 F      5.5671646215     2.8042398257    -2.6183455152
 H      5.2179712242     4.2980810261    -2.2457002898
 F      5.0339267365     5.1957641673    -2.2800747654
 H      3.8527024802     5.7897084377    -6.1769112172
 F      4.0229827732     5.3575219754    -6.9675492403
 H      3.7700342930     3.6989849488    -6.6579039611
 F      3.6508645371     2.8310555568    -6.3870051982
 H      4.9799783304     2.2855972820    -5.5815827304
 F      5.7269846929     2.1470373348    -5.0680930661
 H      4.2812034017     5.7787107923    -3.6337162647
 F      3.9811225386     6.0731560286    -4.4486656364
          12
Energy: -45.08689299387089 Kcal/mole
 H      6.9761002631     3.2992369193    -3.5628803541
 F      6.8943027496     3.4616659816    -2.6640950814
 H      5.7760175954     4.3362178115    -1.7107266851
 F      5.0845539815     4.8217057484    -1.3542599492
 H      3.0244983020     5.3343451904    -4.1260845850
 F      2.7302246881     4.8478395705    -4.8455318186
 H      3.9135879094     4.1015800836    -5.7929122930
 F      4.6037552992     3.6372903634    -6.1789084455
 H      6.0990905777     3.4124497593    -5.5608458256
 F      6.9078432366     3.2050273887    -5.1816570902
 H      4.0548431021     5.8769104267    -2.1714559041
 F      3.5199724034     6.2352273961    -2.8244576538
          12
Energy: -44.08801952648048 Kcal/mole
 H      6.0634489647     3.4191628961    -4.6413219545
 F      6.2140151142     3.8802719375    -3.8631206395
 H      5.7311700376     5.3430118239    -3.1565897368
 F      5.1654298434     5.8161056206    -2.6116041478
 H      2.5815995064     3.0864642221    -2.2658231991
 F      2.4977230714     2.2691395843    -2.6730506297
 H      3.1922348240     1.6965079461    -4.1988073839
 F      3.5605899051     1.3553152810    -4.9661346280
 H      4.9118555429     2.0107327550    -5.6428285503
 F      5.6791782154     2.4554696680    -5.8758821805
 H      3.7602407377     5.0029309043    -1.9924474558
 F      2.9676037574     4.6238654742    -1.7299117113
          12
Energy: -44.67011616889263 Kcal/mole
 H      4.5572622102     5.0031352230    -5.2936627331
 F      4.4117134789     5.7665972450    -4.8070105908
 H      3.8788348567     5.6449178229    -3.2463021634
 F      3.6276908912     5.4527575889    -2.3855524012
 H      2.7625825656     2.2724516317    -1.6356904719
 F      2.7476086940     1.5763953484    -2.2324906343
 H      2.5721137011     1.8244934739    -3.9001274055
 F      2.4549197115     2.1540323440    -4.7478058244
 H      3.8263991895     2.8710582832    -5.3476862847
 F      4.5733684773     3.3445594321    -5.5900136359
 H      2.9175090196     4.4077197421    -1.3649763915
 F      2.5693386226     3.7615995506    -0.8152536679
          12
Energy: -44.150082207683866 Kcal/mole
 H      3.3222998703     7.1650597809    -4.8346719967
 F      4.1795695766     7.4554773654    -4.6875826449
 H      4.5486046065     7.1330482510    -3.1198931469
 F      4.6691646782     6.8916009920    -2.2435042548
 H      2.0348610142     5.0349625367    -0.3055029267
 F      1.1903970703     4.7210887065    -0.4765376196
 H      0.6073052301     5.6720789287    -1.8418634352
 F      0.3258155089     6.2405202041    -2.5040771872
 H      1.1879081472     6.2241305589    -3.9809225374
 F      1.7771909819     6.3083268754    -4.6784508315
 H      3.9934336860     6.1113598072    -0.9532517306
 F      3.5285242203     5.5885518976    -0.3604447820
          12
Energy: -44.65149597366428 Kcal/mole
 H      3.6650763081     3.8753807987    -3.7675609080
 F      4.4012262112     4.4186365040    -3.8295734777
 H      5.1635456390     4.5700885528    -2.3382143691
 F      5.4779184474     4.6365860131    -1.4793565083
 H      2.4448364278     4.1064427102     0.4173961706
 F      1.5880024399     4.3580627287     0.2090409847
 H      0.6342077943     3.6675698226    -0.9298150252
 F      0.3080201958     3.1680818572    -1.6262361786
 H      1.5401939710     2.9445127966    -2.8484919946
 F      2.2188663338     3.0781748422    -3.4505113311
 H      4.6065466272     4.0341862044    -0.1519350185
 F      4.1095893301     3.7379254743     0.5595086017
          12
Energy: -44.92930104123995 Kcal/mole
 H      3.8177093575     5.1063785103    -4.0419159405
 F      4.1808867725     5.9162961839    -4.2721864928
 H      5.0248136372     6.8979295202    -3.2716265382
 F      5.4420186932     7.3660748634    -2.6025459161
 H      2.8726782729     6.3065949400    -0.2176806802
 F      2.0565820441     5.9300014977    -0.3994864134
 H      1.5119081408     4.5093658700    -1.1389304407
 F      1.3622822758     3.7047835604    -1.5526313082
 H      2.3366121896     3.7621582033    -2.8157034994
 F      2.9076831365     3.8084229957    -3.5316829284
 H      4.9387882017     7.0742662233    -1.0180243266
 F      4.5525077240     6.7655451627    -0.2457758566
          12
Energy: -45.075600757899764 Kcal/mole
 H      4.4842407603     2.7663074512    -2.2935152530
 F      4.6179299396     3.5979961791    -2.6558825571
 H      4.1111588548     5.1240498048    -2.2479194140
 F      3.7949360726     5.8983218365    -1.8718941848
 H      1.0630197526     4.1826191625    -0.3549735558
 F      0.6704600310     3.3566630087    -0.4226662217
 H      1.6426879755     2.0155554768     0.0696638713
 F      2.3631805416     1.4720390405     0.2320502801
 H      3.6802542381     1.3264968759    -0.8795561523
 F      4.3414705408     1.3547075370    -1.5142892928
 H      2.5728922899     5.8912032590    -0.7607744349
 F      1.8480699850     5.6433002401    -0.2567251124
          12
Energy: -44.76404722635587 Kcal/mole
 H      5.2085611656     2.2069913269    -2.1103107001
 F      5.7571736581     2.9406681358    -2.1507046749
 H      5.1255502310     4.4032891103    -2.5134199935
 F      4.7381294758     5.2313713572    -2.5846516636
 H      1.9906781480     4.7761747956    -1.2189287082
 F      1.4203592554     4.1850847979    -1.6266516232
 H      1.5759833276     2.6375926283    -1.2972787388
 F      1.7948442581     1.7548495288    -1.1800033646
 H      3.2350605387     1.1015890186    -1.5265587306
 F      4.0798026766     0.9703218363    -1.8583246832
 H      3.7608471368     5.6408343003    -1.3588003000
 F      3.1296212872     5.7760648310    -0.7075279833
          12
Energy: -45.208943662361094 Kcal/mole
 H      4.6910732399     2.0947422241    -0.5566980353
 F      5.3384565327     2.6248555723    -0.1815131338
 H      5.6631533071     3.9852622932    -1.0721872681
 F      5.7510217731     4.7432784493    -1.5806945342
 H      2.1053888698     4.7010645070    -3.0032579037
 F      1.2276928171     4.5723597865    -2.7709354254
 H      0.8744342604     3.1628531279    -1.8565712076
 F      0.9411628761     2.3456659293    -1.4459115258
 H      2.4498865349     1.7058829279    -1.3068762855
 F      3.3275976752     1.4423409592    -1.2743526793
 H      4.5684868748     4.8958194546    -2.6627348176
 F      3.8414626874     4.7700812466    -3.2072664824
          12
Energy: -44.90264733564321 Kcal/mole
 H      4.3522771636     1.8921551885    -0.4738666745
 F      5.0973419823     1.8206472407    -1.0036345759
 H      5.2309145255     3.2348060699    -1.9984195109
 F      5.1753099442     3.9858006698    -2.5216825819
 H      1.7891613376     5.4973916533    -1.6173286844
 F      0.9258404850     5.2694519749    -1.4084995475
 H      0.8147826462     4.3748316803    -0.0172372669
 F      0.8727724328     3.8794873592     0.7522821858
 H      2.1878200499     2.8785340896     0.6082812967
 F      2.9046578709     2.4142362329     0.2744249823
 H      4.1332089348     5.2450535308    -2.0575440607
 F      3.4312321817     5.7878375277    -1.8262365364
          12
Energy: -45.38236819988143 Kcal/mole
 H      0.1126711238     2.3999797275    -1.4976637615
 F      0.3670753031     2.6162940082    -2.3516986821
 H      1.8051666742     3.0768223461    -2.9032943793
 F      2.5941842530     3.5278603955    -3.0253801617
 H      2.2376965105     5.6519716524    -0.1633744603
 F      2.0869210481     5.5416935662     0.7343975061
 H      0.6798277312     4.7577264308     1.3678422270
 F     -0.0319553266     4.2235054189     1.5888892564
 H     -0.2820625153     2.8925415594     0.6354055162
 F     -0.3049812105     2.1820158330     0.0561672875
 H      2.5177844034     5.0156143101    -2.3159950257
 F      2.4305546088     5.7572794735    -1.7838176601
          12
Energy: -45.07940891626846 Kcal/mole
 H      0.6773496538     2.0206670814    -2.8802859158
 F      1.3824429732     1.9900243819    -3.4657715569
 H      2.8597499285     2.6892253583    -3.3273149050
 F      3.6919759978     3.0714180695    -3.2802245552
 H      2.6929492014     6.1901741120    -2.0246087191
 F      2.0562308051     6.3303959361    -1.3797703488
 H      0.6847776032     5.4283679746    -1.4693070380
 F      0.0183679227     4.8076576332    -1.5765721760
 H     -0.5238087459     3.1584996325    -1.6037636720
 F     -0.5936613837     2.2745544496    -1.8375381843
 H      3.6734002607     4.7101633288    -3.3859375605
 F      3.5828658044     5.6225304236    -3.3692403567
          12
Energy: -45.233507664129334 Kcal/mole
 H     -0.0365995474     2.3406558100    -4.5509498647
 F      0.5919665807     1.9346125044    -5.0809710497
 H      1.6351785008     2.8023601023    -5.9970787851
 F      2.3606372720     3.3196330260    -6.2139365581
 H      3.0019169581     3.9433102471    -2.6737903034
 F      2.6377203353     3.6315652542    -1.8920839140
 H      0.9793630789     3.6748430567    -1.5288625292
 F      0.0724006741     3.6141261816    -1.4079424839
 H     -0.7518488664     3.3220486725    -2.7946502176
 F     -1.0848318121     3.1723397741    -3.6358390214
 H      3.1124968211     4.1532517774    -4.9599527753
 F      3.4392134459     4.5010624615    -4.1768991532
          12
Energy: -44.82702214903452 Kcal/mole
 H      0.3349703886     1.4685517219    -2.7081111962
 F      1.0630543570     0.9935429565    -2.4163074817
 H      2.2653347162     0.9444613025    -3.5779386257
 F      2.9152352278     1.0011492320    -4.2223800921
 H      3.5316669259     4.2852899958    -3.6394078877
 F      2.9669894654     4.8569380062    -3.1975403535
 H      1.3843470479     5.1776758970    -2.9222070297
 F      0.4846388788     5.1565990015    -2.7462241468
 H     -0.3830223503     3.6705306161    -2.8408743408
 F     -0.6986081679     2.8221607289    -2.9877182241
 H      3.8452271210     2.3079340288    -4.4969047261
 F      4.3089368197     3.0990427859    -4.4999460576
          12
Energy: -45.50583473141555 Kcal/mole
 H      0.0956192216     1.4213762228    -3.2955474090
 F      0.5009553983     0.5989163398    -3.2832460006
 H      2.1207256318     0.3730817158    -3.1074647405
 F      3.0275328108     0.4326063209    -2.9848003141
 H      4.1338920312     3.2368890541    -4.5802971633
 F      3.9532518618     4.1257298286    -4.4453149167
 H      2.4506418151     4.6114376087    -4.0578189267
 F      1.5819413964     4.7688066940    -3.8098601526
 H      0.3015315794     3.7065831030    -3.5143479257
 F     -0.3144445257     3.0745718294    -3.2653013675
 H      3.9034736603     1.1448152189    -4.1907289737
 F      4.2969500524     1.6277127682    -4.8636890659
          12
Energy: -44.93542252144859 Kcal/mole
 H     -0.0139892764     1.4414988749    -2.6145934214
 F      0.5257585158     0.7081645402    -2.7231386851
 H      2.1096446140     0.6831252162    -3.0776578052
 F      2.9668260456     0.7611328447    -3.3939548226
 H      3.6829394051     3.4304425779    -5.1905829998
 F      3.3574108135     4.2744705280    -5.0404598654
 H      1.8357300482     4.3683000321    -4.4582598706
 F      0.9502583401     4.3399913892    -4.2215586348
 H     -0.0075903806     3.5581356714    -3.0421954514
 F     -0.4797785224     3.0214216402    -2.4678563464
 H      3.6964586547     1.3816513872    -4.7368594731
 F      4.0693771265     1.8338803982    -5.4420613839
          12
Energy: -45.117975682730275 Kcal/mole
 H      0.3393763820     2.1585979058    -1.1070412498
 F      0.8201000416     1.4714899106    -0.7359935897
 H      2.1309687661     0.7963808988    -1.6014478655
 F      2.8841701701     0.6664153698    -2.1080893624
 H      3.5524525172     3.9980601697    -3.7508057275
 F      3.1218881802     4.6960638895    -4.1610424384
 H      1.4527436523     4.4122347596    -4.2510586050
 F      0.5893487871     4.1292157249    -4.1272097745
 H     -0.2255673207     3.8085922588    -2.6551564554
 F     -0.3623460523     3.5481473778    -1.7866237603
 H      3.8279754997     1.9634571719    -2.6512330715
 F      4.2048146679     2.7302714915    -2.9842151140
          12
Energy: -45.57562536297607 Kcal/mole
 H     -0.1171541246     1.7981469715    -1.2705510866
 F      0.3257887753     1.0207275339    -1.0697785649
 H      1.9613458361     0.7765246865    -1.0819692648
 F      2.8655481811     0.6872638359    -1.2058224844
 H      3.9591665487     3.8685404880    -2.5710319028
 F      3.5371679020     4.6825730766    -2.5584984764
 H      1.8823290393     4.7546743354    -2.9926515127
 F      1.0096077346     4.6184670218    -3.2390132223
 H     -0.1668154698     3.8338494254    -2.3018907786
 F     -0.6232474559     3.3052790975    -1.7076078068
 H      3.9569018102     1.6373257391    -2.1179018634
 F      4.4145404324     2.2747331193    -2.5924202752
          12
Energy: -45.477445204214376 Kcal/mole
 H     -0.4232374239     1.3129948283    -2.5279676711
 F     -0.0900761672     0.5064214348    -2.8096269296
 H      1.4217662428    -0.1174331939    -2.3420436417
 F      2.2493827137    -0.2033726195    -1.9566160970
 H      3.0453536790     2.9831591035    -3.1830593001
 F      2.6859058826     3.3913795972    -3.9213291087
 H      1.2788372778     4.1650011210    -3.7189968792
 F      0.4750647464     4.5519163250    -3.5065460786
 H     -0.5020100977     3.5217502697    -2.6562697172
 F     -0.8968691038     2.8637790340    -2.1542246811
 H      3.1327628195     1.1928528646    -1.8837826086
 F      3.4434015580     2.0555966756    -1.8918875946
          12
Energy: -45.48258904659184 Kcal/mole
 H     -0.5247250730     1.2340952660    -1.6923749610
 F     -0.2961012866     0.4546212647    -1.2668864823
 H      0.9948846240    -0.2780598032    -2.0399148982
 F      1.7734414205    -0.4982348409    -2.4714948646
 H      3.7790330607     2.4630348155    -3.1280782640
 F      3.6314056428     3.2037606039    -3.6480979289
 H      2.0998331031     3.7970678072    -3.7692732893
 F      1.2081534594     4.0105755600    -3.7547525269
 H     -0.0169101868     3.0266514238    -3.1647396180
 F     -0.6662718303     2.4790140716    -2.8193242355
 H      3.0947578408     0.4423083544    -2.2931219251
 F      3.7112460474     1.0999795024    -2.1248960286
          12
Energy: -45.53776805518942 Kcal/mole
 H     -0.2300799911     2.0541081780    -0.7651013062
 F     -0.1188912669     1.1438920789    -0.7593811063
 H      0.6718168409     0.5163155354    -2.1073434671
 F      1.1352719247     0.2784073398    -2.8619944299
 H      3.3164027849     3.0150110579    -3.8902266281
 F      3.3186862587     3.9041109451    -3.6657602023
 H      1.7753605712     4.3816455222    -3.4097415217
 F      0.8822448921     4.3918075012    -3.2020636031
 H      0.1343190862     4.0373382416    -1.7698343848
 F     -0.2969220735     3.6982658688    -1.0350214915
 H      2.4346464429     0.9198832222    -3.7720959726
 F      3.0908123760     1.4060008868    -4.1892588719
          12
Energy: -45.74522501877365 Kcal/mole
 H     -0.4864125755     2.3104798472    -1.3755949753
 F     -0.3715263934     1.4088923141    -1.4973738129
 H      1.1860262653     0.7844329468    -1.6845029582
 F      2.0318246200     0.4953706053    -1.8893372958
 H      3.3345462310     3.2576284346    -3.6481852981
 F      3.2209395040     4.1573769328    -3.5124091900
 H      1.6472059519     4.7395750787    -3.5320977290
 F      0.7616041034     4.9480959679    -3.4175664900
 H     -0.1185545484     4.3972820182    -2.1186348841
 F     -0.5367805133     3.9370164830    -1.4447419554
 H      2.8471411906     1.1660734736    -3.1558367159
 F      3.2197863941     1.6191914845    -3.8606122976
          12
Energy: -45.62135552596419 Kcal/mole
 H     -0.3991891600     2.2008678313    -1.7672330701
 F     -0.5689014492     1.4012960399    -2.1828912100
 H      0.7136187116     0.4526060928    -2.5096385790
 F      1.5103471780     0.0354208800    -2.6887174695
 H      3.4548228489     3.1224292405    -3.4068234895
 F      3.5280391656     3.9689848274    -3.0620452864
 H      2.1385858144     4.9212797013    -2.9790243050
 F      1.2952983270     5.2597161818    -2.8556713060
 H      0.5616665530     4.2251734840    -1.8433735120
 F      0.2695729451     3.6076295825    -1.2316465681
 H      2.5821953441     0.9666099545    -3.5805021136
 F      3.0904332293     1.5941566143    -4.0149770172
          12
Energy: -45.86876779842936 Kcal/mole
 H     -0.6063042180     2.4828694977    -2.5555840289
 F     -0.5926833734     1.6594687211    -2.9589630488
 H      0.8071173977     0.7415044910    -2.9583405703
 F      1.6182541291     0.3191451168    -2.8908219665
 H      3.8087954693     3.3018784807    -3.1504614567
 F      3.7624246225     4.1234546245    -2.7457993945
 H      2.3367508824     4.9561500150    -2.8912968777
 F      1.4792831421     5.2762130430    -2.9478453741
 H      0.2191160939     4.4970192395    -2.1527391780
 F     -0.3888639423     3.9234948458    -1.7754872126
 H      2.9298533810     1.1789417299    -3.4207830790
 F      3.5899608661     1.7284823238    -3.7419563092
          12
Energy: -45.74583930356454 Kcal/mole
 H     -0.3530302692     2.4218277676    -2.1452299893
 F     -0.3565880266     1.7095025445    -2.7226978402
 H      0.9017576352     0.6311894717    -2.8501960427
 F      1.7125084586     0.2106082353    -2.9319488775
 H      3.2813465982     3.2366063089    -3.6132694981
 F      2.9457902610     4.0797078227    -3.7454465843
 H      2.1528110381     4.9750483890    -2.5444470663
 F      1.6679307244     5.3247304619    -1.8491036049
 H      0.4633128486     4.3517718563    -1.2835808801
 F     -0.1647946937     3.7118706153    -1.0914967394
 H      3.1050210356     1.0823715191    -3.1713637388
 F      3.7755567871     1.6759097427    -3.3688053326
          12
Energy: -45.80200881457199 Kcal/mole
 H     -0.4063101905     2.2292507950    -1.8559821828
 F     -0.3386074681     1.3756183851    -2.1840325601
 H      1.1336606890     0.6693542283    -2.4011028461
 F      2.0062559385     0.4110894946    -2.5140889424
 H      3.2622503522     3.4426155728    -4.0100670160
 F      3.0186040985     4.3228164664    -3.9277755223
 H      2.1969063142     4.9344532102    -2.6350172801
 F      1.6670500425     5.1790959170    -1.9277045647
 H      0.3933145055     4.3023336193    -1.4235450697
 F     -0.3138614582     3.7456887877    -1.2476539448
 H      3.0949136679     1.2166936664    -3.4821078387
 F      3.5852117974     1.7971286766    -3.9955198985
          12
Energy: -45.80837901717504 Kcal/mole
 H     -0.3825509352     2.2690402538    -1.6820776021
 F     -0.3451452594     1.4745490612    -2.1384475838
 H      1.1329404356     0.6743888524    -2.0386032293
 F      2.0167681302     0.4304937887    -2.0545030443
 H      3.5605139424     3.3398716537    -3.6847265221
 F      3.3792234652     4.2377782088    -3.6424585544
 H      2.1439966394     4.9613155678    -2.7740729479
 F      1.4348625652     5.2594276253    -2.2749266107
 H      0.4029295196     4.3262207110    -1.3671677000
 F     -0.0998538278     3.7126549664    -0.9071296770
 H      3.1193246413     1.1964247025    -3.0532537875
 F      3.6957028969     1.6778740846    -3.5794510879
          12
Energy: -45.92167993317884 Kcal/mole
 H     -0.5026851255     2.2992761137    -2.0334120543
 F     -0.4179004236     1.4932439273    -2.4623790329
 H      1.0451479004     0.7596045043    -2.3489364922
 F      1.9222222501     0.4956483196    -2.3047016912
 H      3.3463523895     3.2566399634    -3.8706503989
 F      2.9899912632     4.0968701356    -3.9595829872
 H      2.2143641612     4.8087704001    -2.6801011289
 F      1.7495077978     5.0599812097    -1.9306408628
 H      0.3338230834     4.2891880925    -1.4774084490
 F     -0.3914111049     3.7665869773    -1.2729275294
 H      3.1814528552     1.1975175466    -3.1186870429
 F      3.8143005300     1.7057060534    -3.5454624662
          12
Energy: -45.87986463523231 Kcal/mole
 H     -0.5104364662     2.3395115565    -2.0494923885
 F     -0.3582551562     1.4857247576    -2.3474486788
 H      1.1173652640     0.6531037560    -2.3553600308
 F      1.9653509542     0.3086851408    -2.4117966037
 H      3.2392092508     3.2160888150    -4.0344885331
 F      2.9083960927     4.0709227576    -4.0611453318
 H      2.1686657003     4.8244832258    -2.7658734411
 F      1.7175341873     5.1242690882    -2.0259425020
 H      0.2611875226     4.4110513699    -1.7034689311
 F     -0.5055134249     3.9285014449    -1.5613273573
 H      3.0715482065     1.0727932764    -3.3971369528
 F      3.6339682115     1.6085438199    -3.8845219066
          12
Energy: -45.94085253787506 Kcal/mole
 H     -0.4911165212     2.3932048691    -2.1621104060
 F     -0.3492665002     1.5659563837    -2.5314713608
 H      1.1157732651     0.7693940004    -2.3668594614
 F      1.9757605118     0.4530696868    -2.3315060453
 H      3.2995525788     3.2685358166    -4.0209208225
 F      2.9738768844     4.1252441157    -4.0505051473
 H      2.2105361806     4.8176515143    -2.7232612147
 F      1.7541509718     5.0773522542    -1.9714919237
 H      0.2542994154     4.4235676027    -1.6747884780
 F     -0.5141469681     3.9325836427    -1.5782798943
 H      3.1545023421     1.1433772304    -3.2980995666
 F      3.6995979831     1.6759363094    -3.8081393391
          12
Energy: -45.988601384994496 Kcal/mole
 H     -0.4936805699     2.3848476029    -2.1646668577
 F     -0.3503155393     1.5496127859    -2.5149785310
 H      1.1084035627     0.7617859830    -2.3969236700
 F      1.9694370361     0.4481856455    -2.3627888484
 H      3.2735438176     3.2569703449    -4.0165535443
 F      2.9354573946     4.1089822560    -4.0422882278
 H      2.2168323336     4.8133373954    -2.7178875894
 F      1.7538169754     5.0775811082    -1.9717769821
 H      0.2571611573     4.4197900512    -1.6710201042
 F     -0.5142987768     3.9327840331    -1.5784797978
 H      3.1382855282     1.1579415306    -3.3007211986
 F      3.7004582476     1.6751637069    -3.8080002676
