          24
Energy: -95.63420869513948 Kcal/mole
 H     -2.6820819401     6.5213764332     1.7892749211
 F     -2.9933774600     6.9775600174     1.0572362358
 H      1.0957050121     2.1773762466     5.0141923428
 F      0.9988874222     2.9930720591     4.6065703417
 H     -1.7137789328     4.8659497945     3.0080858381
 F     -2.1690413816     5.6559367248     3.1057882057
 H     -3.6816384449     3.6051765927     0.2505915600
 F     -2.9234176571     3.5413745209     0.7623723065
 H     -2.0655467276     2.0992343840     0.8228884849
 F     -1.6464924552     1.2836775318     0.8106599268
 H     -4.4968602654     6.6918396858     0.4251943516
 F     -5.2912264846     6.3973460900     0.0742743724
 H      0.9910732677    -0.7577884945     2.3429463614
 F      1.5128026644    -1.5081389149     2.4181905177
 H     -0.4652063624     0.9532585443     1.9247599488
 F      0.1937920870     0.6925148072     2.5066729555
 H      1.8571847518     0.0609154806     5.3842654617
 F      1.2790105185     0.6905219528     5.7162281799
 H     -0.1716912122     3.2567066178     3.4647736214
 F     -0.8378851645     3.4505582685     2.8651936390
 H     -5.2414205590     4.8195837966    -0.4178267760
 F     -5.0433837529     3.9402185238    -0.5863116138
 H      2.4049710889    -1.3158284787     3.7940708609
 F      2.7840578761    -1.0437957186     4.5834886117
