          24
Energy: -95.57686079584153 Kcal/mole
 H     -2.5927513244     6.4286371860     1.2605814142
 F     -2.8850923468     6.8493507897     0.5000383252
 H      0.9453961338     2.1230204282     4.8524934603
 F      0.8080514941     2.9473564394     4.4750075789
 H     -1.7621263736     4.8037574966     2.6621157205
 F     -2.1441258829     5.6373852898     2.6566314535
 H     -3.3138315110     3.5374715821    -0.2937145387
 F     -2.5415844352     3.5497501081     0.2006261248
 H     -1.7104039927     2.1121943760     0.3756864726
 F     -1.2979553153     1.2937968477     0.4073183249
 H     -4.3694965975     6.5064772305    -0.1472955900
 F     -5.1458101666     6.1696036687    -0.5004845562
 H      1.1697390526    -0.7546987348     2.1090167128
 F      1.7393646068    -1.4713404121     2.1623124385
 H     -0.3047995062     0.9057861794     1.6728791793
 F      0.2761222670     0.6231627650     2.3236809149
 H      1.8124116387     0.0194063589     5.1980061450
 F      1.1970073676     0.6219254123     5.5128670246
 H     -0.3639974060     3.1503061159     3.3355242803
 F     -1.0238654797     3.3051562547     2.7178799168
 H     -4.9851135895     4.5856423351    -0.9443209151
 F     -4.7203396676     3.7188874406    -1.0840339175
 H      2.5178851546    -1.3004642321     3.6050861252
 F      2.8233959418    -1.0440030148     4.4307857091
