          24
Energy: -95.62913854658092 Kcal/mole
 H     -2.7016547401     6.4705926846     1.8103755685
 F     -2.9988882911     6.9216157611     1.0693496576
 H      1.0958620011     2.1585131762     4.9501933786
 F      1.0405132508     2.9771041342     4.5406395248
 H     -1.7483696849     4.8313953687     3.0414083604
 F     -2.2063409951     5.6195827150     3.1409673189
 H     -3.7287408464     3.5760573976     0.2798896539
 F     -2.9606857047     3.5178626031     0.7774775006
 H     -2.0548265256     2.1081829368     0.7870311926
 F     -1.6039768968     1.3108183997     0.7442128892
 H     -4.4994052913     6.6681290811     0.4206620294
 F     -5.2963897148     6.3896392329     0.0626840508
 H      1.0562165173    -0.7248658139     2.2636080350
 F      1.4968500032    -1.5182553470     2.3950012610
 H     -0.3393892976     1.0226723891     1.7820717839
 F      0.3626141968     0.7866642949     2.3227937766
 H      1.7182413133    -0.0288102060     5.3871703216
 F      1.1647395146     0.6500583800     5.6585781361
 H     -0.1687329501     3.2420396077     3.4432483701
 F     -0.8672142149     3.4247972434     2.8779054925
 H     -5.2813271187     4.7948592876    -0.3874820424
 F     -5.1011961790     3.9076882145    -0.5336645708
 H      2.2813202145    -1.4376934010     3.8504403709
 F      2.6130476141    -1.2196365737     4.6770582709
