          24
Energy: -6.5831567112581695 Kcal/mole
 H      4.6675537931     0.0427973456     3.1083476467
 F      3.7509483054     0.0427973456     3.1352433713
 H     -2.2464903881    -0.6019770075    -3.9771790421
 F     -3.1385397106    -0.8144317231    -3.9771790421
 H     -2.5857848251     0.2741630919     4.8595136611
 F     -2.1859480957    -0.5510760189     4.8595136611
 H      1.9453013435     0.2787730695     0.4458358254
 F      1.0768019605    -0.0155020088     0.4458358254
 H      0.6420213927    -3.6650903210    -0.2262202627
 F      1.3118172888    -4.2913989171    -0.2262202627
 H      1.0870431224     4.2351738374     5.7294153706
 F      1.5171164929     4.2351738374     4.9195228493
 H      2.1407099150     4.7035204822    -3.9470809435
 F      1.8182521083     3.8450858820    -3.9470809435
 H      2.8737849029    -0.2176818199    -3.6323991248
 F      3.7907849029    -0.2176818199    -3.6323991248
 H     -2.0037633067     4.2573760679     4.4551991008
 F     -1.3159602530     3.6508977425     4.4551991008
 H      2.1673023802    -3.6091919856     3.2870674174
 F      3.0843023802    -3.6091919856     3.2870674174
 H     -2.6826578082     4.8349601014    -2.1706766467
 F     -1.9069591682     4.3458991441    -2.1706766467
 H     -1.5767900014     2.5588307858     0.8948548141
 F     -2.4936332048     2.5588307858     0.9118118266
