          24
Energy: -95.63633911344756 Kcal/mole
 H     -2.7003253641     6.4926462811     1.8246502521
 F     -3.0029555711     6.9518604100     1.0908748494
 H      1.0709318281     2.1682210626     4.9588078438
 F      1.0218122236     2.9804263217     4.5359616761
 H     -1.7459610600     4.8338103086     3.0279953011
 F     -2.2042624065     5.6204847267     3.1375043677
 H     -3.6884348101     3.5913259961     0.2112913394
 F     -2.9387466430     3.5269229495     0.7354181367
 H     -2.0551963369     2.1029854850     0.7804980587
 F     -1.6206921927     1.2959077623     0.7536522356
 H     -4.5056829381     6.6608942579     0.4591135561
 F     -5.2995949092     6.3664192369     0.1071515637
 H      1.0478631248    -0.7543052235     2.2560066709
 F      1.5295420908    -1.5265648735     2.3677626849
 H     -0.3962408342     0.9746688687     1.8199997203
 F      0.2871253166     0.7228192759     2.3771994032
 H      1.6918012163     0.0052903468     5.3922565596
 F      1.1412747409     0.6774750336     5.6854754995
 H     -0.1763722601     3.2434163085     3.4306536729
 F     -0.8658980114     3.4280633213     2.8550246961
 H     -5.2393120287     4.8051797355    -0.4407333637
 F     -5.0346182464     3.9332506045    -0.6375303301
 H      2.2813768874    -1.4034522181     3.8312038557
 F      2.5929861157    -1.1681134587     4.6609052219
