          24
Energy: -95.577886593694 Kcal/mole
 H     -3.0390244860     5.3417111665     0.1936425562
 F     -3.6734336037     5.4775194481    -0.4544085081
 H      2.3889986671     2.5719722277     2.6386316695
 F      1.9880789764     3.0770034975     1.9866379440
 H     -1.4370366290     4.2800529129     1.3963859881
 F     -1.9218431655     5.0582239841     1.3790249344
 H     -4.1760238293     2.0555366911     0.3641086800
 F     -3.3010301067     2.1977935952     0.5987103822
 H     -2.2491408774     0.8995241918     0.7476243101
 F     -1.7360592236     0.1436555740     0.8269896001
 H     -5.2513407308     4.9841190940    -0.2799202808
 F     -6.0684176135     4.5853499663    -0.1605152953
 H      1.3221221063    -1.2418233316     2.3751243676
 F      1.8943630221    -1.9243777427     2.5931812641
 H     -0.2732664427     0.2268291971     1.6202153524
 F      0.5312422847     0.1889518550     2.0586443825
 H      3.5156907965     0.8151182229     3.6741242646
 F      3.1126895184     1.6265374594     3.8158203926
 H      0.3866608701     2.9221083096     1.6223843417
 F     -0.5061998972     2.8899794625     1.4158501137
 H     -5.9959051131     2.9247950386    -0.1255124670
 F     -5.7520208789     2.0426252518    -0.0690682677
 H      3.3354079601    -1.2589937584     3.0675806127
 F      4.0322843363    -0.7162617102     3.3139426232
