          24
Energy: -95.64285147923701 Kcal/mole
 H     -2.6945481005     6.4943812893     1.7989973818
 F     -3.0084470818     6.9452488020     1.0647801691
 H      1.0569816088     2.1404545566     4.9785226861
 F      0.9968495113     2.9611929675     4.5739715869
 H     -1.7197787920     4.8507126570     3.0168168637
 F     -2.1708732903     5.6427193670     3.1174554492
 H     -3.6897464574     3.5965080772     0.2180873681
 F     -2.9484165903     3.5317517264     0.7539284297
 H     -2.0622781637     2.1092405718     0.7926761726
 F     -1.6258644554     1.3032773104     0.7634307234
 H     -4.5133518123     6.6604891264     0.4344214780
 F     -5.3068553712     6.3677675673     0.0800837988
 H      1.0256208883    -0.7516474527     2.2881400696
 F      1.5233211856    -1.5160643626     2.3822155812
 H     -0.4235624592     0.9722581683     1.8559273704
 F      0.2461857369     0.7134733417     2.4263279028
 H      1.7280994007    -0.0193873411     5.3863261263
 F      1.1579401003     0.6367458145     5.6783820358
 H     -0.1793810906     3.2381971225     3.4478429031
 F     -0.8544700530     3.4340394548     2.8589543960
 H     -5.2348344275     4.8082987847    -0.4637139103
 F     -5.0239907161     3.9368073889    -0.6559030788
 H      2.3222164426    -1.4011454864     3.8240089787
 F      2.6535656318    -1.1687540672     4.6468643385
