          24
Energy: -95.47293265688141 Kcal/mole
 H      3.2759283929     1.3281383003    -2.8449808537
 F      2.7942452387     1.9990646441    -2.4465738004
 H      3.7693436563    -1.8312238582    -0.6553477698
 F      3.7146969566    -2.6977261189    -0.9504351643
 H      3.9231438568    -0.8068756092    -3.6470572210
 F      4.1233415556     0.0868944988    -3.6025052792
 H      0.9503656929     4.7099725737     2.4151894142
 F      0.5589783773     4.7098122700     3.2444691882
 H      1.3653749873     5.0046674615     4.6642494664
 F      1.8893426830     5.0759270729     5.4134282980
 H      2.8820434868     2.3467683642    -0.8369805801
 F      2.9087308404     2.5817030236     0.0490117963
 H      3.5816868531     2.9219232241     3.8564558852
 F      3.4340838466     2.8271501475     2.9563889896
 H      3.0552798066     3.9038499954     5.5693748098
 F      3.6578731305     3.2239521181     5.4448390225
 H      3.9332702224     0.1116596285     0.4444191185
 F      3.8254979748    -0.2013842002    -0.4107286488
 H      3.6020465224    -2.6484244640    -2.5886749320
 F      3.5560238690    -2.4103327927    -3.4730296524
 H      2.1412261775     3.9551039569     0.6304007393
 F      1.6829523424     4.6889832173     0.9342021930
 H      3.8923627540     1.3598451390     2.2986710254
 F      4.1491858702     0.5242025889     2.0218454204
