          2
Energy: -5.0208051292383675E-6 Kcal/mole
 He    -5.4331517693     5.6232498808    -4.9016529464
 He     5.8870192695    -0.0696587165    -6.8607564941
          2
Energy: -7.86508881257521E-4 Kcal/mole
 He     5.2364286441     1.5897551059    -1.1563686162
 He     6.7313586288     6.7043931391    -2.5709063597
          2
Energy: -6.485628083559516E-6 Kcal/mole
 He     4.1537715706    -4.4490687975    -5.3851407046
 He     4.7854580199     4.7428006849     2.7423961710
          2
Energy: -1.1416522524090772E-5 Kcal/mole
 He    -3.9400210247     3.0025338202     5.9914206587
 He     0.9363515301    -2.2263607650    -2.6046278498
          2
Energy: -1.7663893897090426E-5 Kcal/mole
 He    -2.9425860874     4.2113843780    -4.2120784449
 He    -5.6188015564    -1.8162443940     3.8246252974
          2
Energy: -0.018028021256971248 Kcal/mole
 He     5.4171921225     1.7639608242    -2.1036394427
 He     5.0161995133     2.3970086113    -4.7405922643
          2
Energy: -0.01995053794029016 Kcal/mole
 He     2.2069738652     0.1176512312    -7.3508427589
 He     1.6170461249     0.7811396242    -4.5969078437
          2
Energy: -6.954174300910006E-6 Kcal/mole
 He    -1.1164002665    -2.0892702938    -6.0196482633
 He     6.4741246986     4.8547752427     0.4333382247
          2
Energy: -1.5504341615116365E-5 Kcal/mole
 He     1.0680430739     5.6539143459     1.3030843181
 He    -6.9805795888     3.1300104707    -5.1572058680
          2
Energy: -0.01999999998152907 Kcal/mole
 He    -1.4181953668     4.5056401456    -0.8227349653
 He    -3.1886593339     2.5661785478    -1.9782687969
