          2
Energy: -0.0011621527412632984 Kcal/mole
 He    -0.8555970488     3.7824010378     5.7451632688
 He     0.7896167796     5.2133376037     1.0666467065
          2
Energy: -9.40558486331042E-4 Kcal/mole
 He     2.8838727282    -6.4259150800     7.4199835610
 He     7.4652454855    -5.9274164060     4.7034619248
          2
Energy: -2.583833847674687E-4 Kcal/mole
 He     0.7580488242    -0.4047036997     5.4128698653
 He    -3.3417971747     3.3915816120     1.8171636995
          2
Energy: -1.0366492754571755E-6 Kcal/mole
 He     5.5119158299    -4.4396259590     1.2583645524
 He    -6.8305171323     6.6955763799    -0.0897586878
          2
Energy: -1.7213813657803578E-4 Kcal/mole
 He     1.6887205196     1.9887374967    -2.2889360679
 He     6.2193195538     6.7400016236    -5.0216401535
          2
Energy: -4.307667567696067E-6 Kcal/mole
 He     5.6118742014    -5.1618621973    -1.0858162894
 He    -4.1666322345     1.3347786860     4.8455637071
          2
Energy: -5.403078146581169E-6 Kcal/mole
 He    -6.1702612047    -1.9131305096     1.5114667155
 He     4.4436891895    -4.8379252745    -4.7503809646
          2
Energy: -5.0379501602744184E-5 Kcal/mole
 He     2.3621749305    -1.3625841677     3.2377892911
 He    -5.9038554041     1.0454201652     4.6792871280
          2
Energy: -0.01995420931682598 Kcal/mole
 He    -1.7721274070     5.5990797310     0.0156284616
 He    -1.7458110427     7.1306271201     2.4693076494
          2
Energy: -0.019999999996634994 Kcal/mole
 He    -1.0621851882     5.1663061190     0.5233045080
 He    -2.2060697121     6.9543189290     2.4535347013
