          2
Energy: -2.6960246535046324E-5 Kcal/mole
 He     1.0610161786     3.1477488859    -6.3361408689
 He    -3.1164770274     6.1333230227     1.8800145679
          2
Energy: -2.1572677925623776E-4 Kcal/mole
 He    -6.6325751666     1.2653279803    -0.2919168888
 He    -5.0529297177     6.9963209107    -3.6912225917
          2
Energy: -1.6378091465805574E-6 Kcal/mole
 He    -7.2682058839     5.2266964942     4.0402765929
 He     6.3666909767     2.6891064142    -2.7762382939
          2
Energy: -3.8680367830718523E-7 Kcal/mole
 He     7.1327228839    -7.4176146409     1.5145054569
 He    -5.9110918733     7.2385867277     0.3268684381
          2
Energy: -2.1199996282873716E-5 Kcal/mole
 He     7.0097627035     3.7202989413     4.9179253057
 He     5.9641463313    -5.3543245646     0.6446222541
          2
Energy: -3.099549584437702E-5 Kcal/mole
 He     3.8838423318    -2.6722897243     3.6917213785
 He     2.1151495620     6.0929648651     6.7975942751
          2
Energy: -2.1843584096134026E-6 Kcal/mole
 He    -5.6443918565    -5.3435987836     7.4620896466
 He    -5.8125882155    -4.9192478946    -7.2602864335
          2
Energy: -1.6201153888459046E-6 Kcal/mole
 He     3.5768342957    -5.6409814878    -4.3082234996
 He     7.1058098894     6.1018022840     5.1434573960
          2
Energy: -7.666050492022553E-5 Kcal/mole
 He    -6.9593190214    -1.3081104980    -6.3164791546
 He    -2.2421955450     4.6775523340    -3.4588648909
          2
Energy: -0.019999999996412166 Kcal/mole
 He    -5.0927800717     0.6002445216    -1.9599425831
 He    -4.8578225841     2.2032148480    -4.3277473489
