          2
Energy: -1.540457700304019E-5 Kcal/mole
 He    -1.8212955565     3.1940579449    -3.7189890282
 He     2.2057243835    -3.4348106877     3.5590735334
          2
Energy: -1.916977940933071E-6 Kcal/mole
 He     2.2670669830    -7.1181351992     0.7844024881
 He    -3.3964151210     6.3604883045    -2.8016817727
          2
Energy: -1.8061119132664589E-6 Kcal/mole
 He     7.2699150155     4.3629729139     3.6650062476
 He    -2.6750518664    -6.9969483362     1.8752629549
          2
Energy: -7.704254543659299E-6 Kcal/mole
 He     4.7359549520    -3.3916039606     2.4261526638
 He    -3.9109366124     3.2899451548    -2.3815708011
          2
Energy: -0.002018835886159908 Kcal/mole
 He     2.0970039442    -3.8165162136     1.3517996280
 He    -1.8686948501    -5.4709675040    -0.5495954143
          2
Energy: -3.821950092240765E-6 Kcal/mole
 He    -5.8297507241    -3.1262163613     1.2590865643
 He     6.9952887313    -6.6068656110     3.1163131188
          2
Energy: -3.039192581594687E-5 Kcal/mole
 He    -4.9812889418    -2.9151203146    -3.7092016467
 He    -1.6283231791     5.9245782226    -2.8084964177
          2
Energy: -7.100324777276251E-5 Kcal/mole
 He     0.2742420496     4.2942231298    -6.4266392937
 He     5.9883204403     2.1813552429    -0.8726584202
          2
Energy: -3.365221099982311E-4 Kcal/mole
 He    -6.1254002529    -2.4380453311     1.4145140951
 He    -5.4388603158    -4.1383692933    -4.6725042882
          2
Energy: -0.019999999997158093 Kcal/mole
 He    -5.4811521741    -2.3943614404    -0.7670241206
 He    -6.3849989246    -4.0033003000    -2.9637527231
