          26
Energy: -104.74665845191137 Kcal/mole
 H      3.8899060980     6.4265923065    -3.7714809682
 F      3.9233782615     6.4476965956    -4.6876268208
 H      0.2207039587     2.8183029861    -5.2642989989
 F      0.8362207334     2.4351759218    -4.7028350618
 H      3.6327260289     1.6615914189    -4.1720520457
 F      3.8276191420     2.5422296462    -4.0065770113
 H     -0.2238277044     6.3816792832    -4.7062980926
 F     -0.8126291617     6.1884554058    -5.3822170057
 H      1.3175356380     3.4290092952    -3.4580866166
 F      1.4974654264     4.0462426785    -2.8042233115
 H      2.8204966345     0.2418290488    -5.4658176186
 F      3.1918321600     0.1583207429    -4.6315363169
 H      2.6537312491     3.8316065450    -6.8216978290
 F      2.9261880922     3.1646061501    -7.3889426985
 H      2.7639392243     5.5519714873    -5.4191579302
 F      2.1230814321     4.9871712655    -5.7526110748
 H      1.0879382180     5.6462065836    -3.0884142602
 F      0.8386396713     6.4592666671    -3.4314485663
 H      4.2812634869     3.1773030022    -2.5290999376
 F      4.5205540998     3.6525373627    -1.7822523593
 H     -0.8274362708     4.6455613855    -5.9854964895
 F     -0.7731355546     3.7528183496    -6.1878583045
 H      4.0312356537     5.2256952209    -1.9229447196
 F      3.7584619473     6.0684847305    -2.1599876431
 H      2.5099438432     1.5633544688    -7.1972502163
 F      2.3100480444     0.6954820435    -6.9787825457
