          26
Energy: -104.73944228748478 Kcal/mole
 H      3.9700307310     6.4335313236    -3.7139807921
 F      4.0354109555     6.4766012817    -4.6276324790
 H      0.3027421474     2.9253398650    -5.4397980448
 F      0.8816662145     2.5116618519    -4.8613462958
 H      3.6388765336     1.6780845298    -4.1934497394
 F      3.8604828032     2.5555261552    -4.0455448532
 H     -0.0396645844     6.4736529965    -4.8144764174
 F     -0.5936610985     6.3207817583    -5.5290442916
 H      1.3229446103     3.4473985906    -3.5560290643
 F      1.4846029142     4.0338245648    -2.8698365479
 H      2.8295100000     0.2347979602    -5.4594680656
 F      3.1565954271     0.1810259926    -4.6044752593
 H      2.8485622146     3.7756393158    -6.8050154515
 F      3.1069287507     3.0986337794    -7.3669756250
 H      2.9301465502     5.5532528313    -5.4129272783
 F      2.3099901257     4.9794220857    -5.7693165103
 H      1.1578641666     5.6448079137    -3.1438794610
 F      0.9587986745     6.4741968208    -3.4805929455
 H      4.3134447041     3.1455222952    -2.5446728466
 F      4.5487969808     3.5952796998    -1.7809866657
 H     -0.6505697585     4.7908296719    -6.1714537353
 F     -0.6265367820     3.9004398318    -6.3894384796
 H      4.0670875029     5.1727641247    -1.8867326993
 F      3.7959080913     6.0197363043    -2.1103145718
 H      2.6330434806     1.5025677149    -7.2180557635
 F      2.4094465247     0.6376599030    -7.0111067884
