          26
Energy: -104.7599670515382 Kcal/mole
 H      3.9321313931     6.3620027012    -3.6861548505
 F      4.0243291549     6.3683791359    -4.5984858835
 H      0.2768210484     2.8804102993    -5.4091389476
 F      0.8718250888     2.4735977292    -4.8422503124
 H      3.6339522992     1.6457017248    -4.1556674243
 F      3.8415548978     2.5232032895    -3.9889905959
 H     -0.1068435328     6.4417272917    -4.8000092476
 F     -0.6796881966     6.2775145332    -5.4969828204
 H      1.2977374387     3.4201507529    -3.5415431343
 F      1.4520626254     4.0143617079    -2.8603778991
 H      2.8251178736     0.2123066124    -5.4475858344
 F      3.1714186577     0.1516886201    -4.6006559518
 H      2.7663246143     3.7606561593    -6.8141040240
 F      3.0218518597     3.0762428804    -7.3683361870
 H      2.8862255506     5.5113255233    -5.4049550043
 F      2.2468815506     4.9708449794    -5.7791328115
 H      1.1239272883     5.6331299981    -3.1379212694
 F      0.9254759815     6.4584941978    -3.4847353648
 H      4.2506365107     3.1391382702    -2.4876487995
 F      4.4639875123     3.6015362094    -1.7250489725
 H     -0.7170830718     4.7438488715    -6.1246815051
 F     -0.6801641116     3.8528512267    -6.3383382092
 H      3.9784562021     5.1703915251    -1.8467708787
 F      3.7101043475     6.0154850543    -2.0806366717
 H      2.5708174202     1.4815055827    -7.1983052015
 F      2.3622678397     0.6139402129    -6.9868190282
