          26
Energy: -104.75283069534902 Kcal/mole
 H      3.9318932958     6.3711950027    -3.7084284429
 F      4.0126357432     6.3712343282    -4.6218668128
 H      0.2726210295     2.8822951892    -5.4082164928
 F      0.8735352443     2.4691642131    -4.8522363645
 H      3.6473466730     1.6353795661    -4.1348258380
 F      3.8450040431     2.5149458644    -3.9669458482
 H     -0.1079329500     6.4502448908    -4.7791002307
 F     -0.6865464090     6.2914818027    -5.4725623759
 H      1.3102922857     3.4106083895    -3.5478757323
 F      1.4640293927     4.0053459858    -2.8670372099
 H      2.8608677997     0.1994980450    -5.4382845582
 F      3.2014278898     0.1375447168    -4.5891263808
 H      2.7567078786     3.7627693950    -6.8143887215
 F      3.0213193126     3.0784397463    -7.3644457376
 H      2.8695514098     5.5128212753    -5.4171776592
 F      2.2292903227     4.9705525107    -5.7871767501
 H      1.1317547577     5.6279207023    -3.1383286150
 F      0.9335198803     6.4558203996    -3.4791717235
 H      4.2739595200     3.1508328473    -2.4770442344
 F      4.4993676309     3.6242022371    -1.7247134532
 H     -0.7288144285     4.7529386742    -6.1017313761
 F     -0.6956285858     3.8617131406    -6.3150497953
 H      4.0099264090     5.1944067081    -1.8539946680
 F      3.7351683852     6.0362358424    -2.0921558255
 H      2.5938865957     1.4743642216    -7.1844431317
 F      2.3999804735     0.6032878354    -6.9734565318
