          26
Energy: -104.67362530320554 Kcal/mole
 H      4.8126169252     5.3929160969    -3.7154973953
 F      4.6760988646     5.3873894507    -4.6222615738
 H      0.9016736050     1.9129995839    -4.8934884069
 F      1.3946619295     1.6914010739    -4.1527147490
 H      4.1657748090     0.9309030886    -4.0827465398
 F      4.3972014616     1.8006423080    -3.9070069750
 H      0.0536716827     5.3474145475    -4.8461539613
 F     -0.4263013996     5.0188973053    -5.5550906735
 H      2.0399435418     2.8918738439    -3.1872976183
 F      2.2932437800     3.6204443922    -2.6914015147
 H      3.1559930774    -0.4143674092    -5.2845208395
 F      3.6734504787    -0.5452329699    -4.5388660649
 H      3.0583490490     3.0833472922    -6.8228233538
 F      3.2815033958     2.4007950522    -7.3930983552
 H      3.3738386880     4.6411692022    -5.3022260790
 F      2.6555379790     4.1909329133    -5.6518263872
 H      1.4433476722     4.9963751220    -3.1110637994
 F      0.9487519923     5.6768149535    -3.4761196160
 H      4.9919041748     2.3008498156    -2.4211994454
 F      5.3042722142     2.7062054509    -1.6602776249
 H     -0.1078501016     3.4754460674    -6.0571374284
 F      0.1351214397     2.6011953031    -6.1895739457
 H      5.1063707848     4.3389147832    -1.8225447887
 F      4.9941311673     5.2091242292    -2.0890533031
 H      2.6864221412     0.9042056308    -7.0121838866
 F      2.3845492969     0.1194014987    -6.6463365686
