          5
Energy: -2.1292592030054966 Kcal/mole
 Ar    -3.1527877012     7.0123835069     0.7676631471
 Ar    -2.9803297317     3.5597416832     2.3652888259
 Ar    -0.4752975050     6.2733511685     3.3712940232
 Ar    -1.9018967304     3.9312476099     6.0124206697
 Ar    -4.1381257324     6.5682774962     4.4147296307
