          5
Energy: -2.1291693927604234 Kcal/mole
 Ar     0.6227840287     3.9457642161    -3.4105604703
 Ar     3.4293972679     6.2109986342    -2.1204879201
 Ar     0.0702168768     7.7194107758    -3.1027185099
 Ar     2.3912693449     6.3394784149    -5.7817951279
 Ar     0.3618125802     5.5718851645     0.0329374123
