          5
Energy: -0.024945975276922112 Kcal/mole
 Ar    -3.9791293179     4.2877237183    -3.0681545031
 Ar     3.9804127079    -3.4998878514     2.5992682373
 Ar     2.9700888684     2.4207417370    -3.3318656158
 Ar    -5.1840617465     5.3417285289     4.8573907396
 Ar    -5.3536989425    -4.6858116623     3.7260656791
