          5
Energy: -2.129136183589006 Kcal/mole
 Ar    -1.7190772962    -2.4419202821    -2.6069592052
 Ar    -3.4814924787    -3.1574693361     0.6989208643
 Ar    -1.6709039168     0.1619398641     0.1627423766
 Ar    -1.5076862499    -1.5800068424     3.5392680448
 Ar     0.3402058218    -3.0546318126     0.5394918697
