          5
Energy: -2.1291307924846348 Kcal/mole
 Ar     4.2703456878     4.8354581995    -4.9123536270
 Ar     4.6280725384     1.0828185634    -4.3518238579
 Ar     2.4871992468     2.4086306503    -7.2364963329
 Ar     1.3464085258    -0.6360704868    -5.2431365558
 Ar     1.3020661715     2.8169057237    -3.6104724336
