          5
Energy: -0.2695034043182186 Kcal/mole
 Ar    -3.6521209033     4.4301011076    -2.8007677280
 Ar     2.2034518396     2.3152199038    -4.7138118189
 Ar     7.6700970699    -8.1176865327    -3.0405781507
 Ar    -6.0282121346     2.4169094593    -4.6159036535
 Ar     2.9171653379    -6.8924935544    -0.5605147056
          5
Energy: -0.19296609956981756 Kcal/mole
 Ar     6.8881243818    -0.4409600215     0.7586516077
 Ar     7.6564753521    -4.7182877201     1.3360248885
 Ar     1.4331764068     7.5017849126     1.9358241541
 Ar     4.5530690550    -6.1194736507    -4.2934601027
 Ar     1.0915082609     2.9678068689    -5.3663345770
          5
Energy: -0.0663171216433147 Kcal/mole
 Ar    -4.6472868131    -7.8538357726    -0.2914787986
 Ar     2.5508325182     6.6480614688    -2.8538302896
 Ar     4.2186603450     4.9292201262    -7.5672244541
 Ar    -7.4739492458     5.1792171714     7.8154870645
 Ar     7.4964458170    -0.1373001349     0.4394558501
          5
Energy: -0.2435875947092643 Kcal/mole
 Ar    -1.4229010669    -6.6902225782    -1.6100437304
 Ar    -6.3257205085    -3.5360513523     5.8034297301
 Ar     2.0698296621     0.5160078752    -3.2185457524
 Ar    -0.6503520251    -2.0806559960     0.3931962486
 Ar    -0.2975961266     4.8813711816    -3.8874308006
          5
Energy: -0.21092185076568445 Kcal/mole
 Ar    -0.1504638903    -4.7039291992    -4.8164432001
 Ar    -5.1615813282    -2.2994459364    -3.7861967155
 Ar    -4.8264752362    -5.3335776630     7.0092553821
 Ar    -2.8384425079     4.2156823036     2.0084725286
 Ar    -3.9717072987     5.5310983844     6.0156197029
          5
Energy: -0.505692541235351 Kcal/mole
 Ar     1.3117542384     6.2939914289     5.4933227268
 Ar     3.7610724015    -1.6110607809     5.2238015969
 Ar     0.9314849113     3.4211700479     2.5958881764
 Ar    -4.0559803658     5.7245222155     6.2233103241
 Ar    -2.3151531040     2.4872577404     1.5797208051
          5
Energy: -1.5186127661283826 Kcal/mole
 Ar     0.1313177343     3.7984061861     2.9803654099
 Ar     2.1908630740     0.9810091340     1.3746506711
 Ar     0.9782446171     4.5325734551    -0.7120033317
 Ar     2.1763428424     4.2090628692     6.0310488349
 Ar     2.6067484809     0.5507643184     5.1715897273
          5
Energy: -1.7894920093624154 Kcal/mole
 Ar     2.6945823325     2.1516991465     3.0151715234
 Ar    -1.4016938716     1.5974877917     3.3444331434
 Ar     0.1776093827     5.1814842606     1.5110208150
 Ar    -3.0074650903     4.2697508974     0.1549526398
 Ar     0.3019349797     1.7307479322    -0.0134837402
          5
Energy: -2.0165288310262417 Kcal/mole
 Ar    -3.3477420418     6.7082997633     0.4525460825
 Ar    -3.0564153117     3.5981067618     2.4610655165
 Ar    -0.4863031217     6.3227440337     3.3842067381
 Ar    -1.9528063887     3.9571932146     6.0264728610
 Ar    -3.9670915332     6.8510729078     4.6190839471
          5
Energy: -2.1292592030054966 Kcal/mole
 Ar    -3.1527877012     7.0123835069     0.7676631471
 Ar    -2.9803297317     3.5597416832     2.3652888259
 Ar    -0.4752975050     6.2733511685     3.3712940232
 Ar    -1.9018967304     3.9312476099     6.0124206697
 Ar    -4.1381257324     6.5682774962     4.4147296307
