          5
Energy: -0.2504360861763368 Kcal/mole
 Ar     4.0230795771    -0.0910945427    -5.0138574188
 Ar     3.6894502267    -0.4103298027     6.3330609131
 Ar    -3.0825657859    -2.7512604639    -4.4916728614
 Ar     2.1302407473     2.3119240995    -7.2915216345
 Ar    -5.4442403818     5.4575182908     4.6502962280
          5
Energy: -0.2323288984985166 Kcal/mole
 Ar    -0.5948284110    -7.3074238998     6.4861809252
 Ar     5.0435869569    -6.1604511738     1.5115190794
 Ar    -1.9771017684    -3.0532584129    -6.6132467958
 Ar     4.5528716104     6.4984318320     6.4864623882
 Ar    -4.0549384650    -5.3381379540     6.6081583778
          5
Energy: -0.12347786550361904 Kcal/mole
 Ar    -1.7836761634    -7.6835122202     4.2456091454
 Ar    -3.8252791613    -6.8596828177    -0.5511313635
 Ar    -2.2681413132    -1.0901636904    -2.0159990513
 Ar    -1.4217406823     0.9841889743    -8.2108666581
 Ar     4.6487858718     3.2855194672    -5.3784645639
          5
Energy: -0.14487052464343414 Kcal/mole
 Ar     1.1769302985     1.1941045272    -3.5251238651
 Ar     3.5514894681     1.8140212655     0.6316838918
 Ar     0.1071396431    -7.2551486271    -1.5381037675
 Ar     1.2265797518    -1.3432264098     5.7207276135
 Ar     6.8207154023    -3.4602326844    -5.2618453832
          5
Energy: -0.3770737036365791 Kcal/mole
 Ar    -6.1172012834     1.5993232383     7.3333033259
 Ar     7.9420825314    -7.1091763591    -0.7683405554
 Ar     1.8651298621     4.8037187396    -6.5011780115
 Ar     5.2983008873    -5.9440959133    -3.2372889429
 Ar     5.7941241574     6.1446363370    -4.7635334954
          5
Energy: -0.18416225070950465 Kcal/mole
 Ar    -0.3813459183    -1.5767994582     3.8256937538
 Ar    -0.3316078248     3.6953252890     2.6941986976
 Ar     4.1300818383    -8.0652558122     1.1495929414
 Ar    -3.3265503741     1.7760309888    -3.2249701322
 Ar    -6.0584951519     5.2564450748    -1.1402518581
          5
Energy: -1.0672876712623391 Kcal/mole
 Ar    -1.6082816055     3.0882788317    -0.4154941264
 Ar    -1.6610800889    -1.1927359680    -2.5895739818
 Ar    -4.1934100761     1.3264137833    -2.1056397402
 Ar    -0.1653046204     6.3677694582    -1.5365840200
 Ar    -3.6775538177    -1.8340045587     0.1200440288
          5
Energy: -1.8587613275918167 Kcal/mole
 Ar     0.2284812848     2.0410808702    -4.3111458086
 Ar    -0.4210908231     1.8993056244    -0.3182823951
 Ar    -2.1223508240     4.8651473331    -3.3707756817
 Ar     1.1977182286     5.6028217396    -5.5914632243
 Ar     2.1232633370     4.2957672533    -1.9138294483
          5
Energy: -1.999289884545967 Kcal/mole
 Ar     0.6646435393     3.9640002466    -3.3418362145
 Ar     3.7018749039     6.4122887396    -2.1903305885
 Ar     0.2982843461     7.7068517673    -3.1672676798
 Ar     2.2077485930     6.1448617175    -5.9794615328
 Ar     0.3481903132     5.3423794475     0.0542358766
          5
Energy: -2.1291693927604234 Kcal/mole
 Ar     0.6227840287     3.9457642161    -3.4105604703
 Ar     3.4293972679     6.2109986342    -2.1204879201
 Ar     0.0702168768     7.7194107758    -3.1027185099
 Ar     2.3912693449     6.3394784149    -5.7817951279
 Ar     0.3618125802     5.5718851645     0.0329374123
