          5
Energy: -0.6962531153295387 Kcal/mole
 Ar    -0.0866381200     5.5388504970    -3.9487089172
 Ar    -1.8571080620     6.0656560733    -7.9665806577
 Ar     2.6033859085     7.8628684749    -4.9353971101
 Ar    -8.1491281431    -4.1084095700    -4.1169583307
 Ar    -2.7050475134     2.1792648539    -6.5526620551
          5
Energy: -0.27494844862210743 Kcal/mole
 Ar    -4.1747641462    -4.0345457479    -1.4776109556
 Ar     5.2614631311    -6.1383200800     4.6634231059
 Ar    -3.0435109580     6.5462831454    -2.1290161772
 Ar    -6.7941243780    -1.8768935452    -3.6451075577
 Ar    -0.6618409463    -0.7609969807    -5.1219071089
          5
Energy: -0.18883560202631364 Kcal/mole
 Ar     6.8903357745     5.1551042392    -2.9639637590
 Ar    -6.0085018507    -4.2289056820    -5.7689253314
 Ar     4.6878688739     3.7187908254     0.3676399261
 Ar     4.4215561438    -5.9412442657    -4.1786474707
 Ar    -4.1360959777    -2.2237905315     3.0221431686
          5
Energy: -0.42279425812565413 Kcal/mole
 Ar     3.9566580692    -4.4691624335     0.1162111159
 Ar     0.4662842113     4.9428975808    -3.7911826025
 Ar     5.2456530646    -8.1176052801     1.2457278743
 Ar     1.0941341664     1.0615841154     0.3206490381
 Ar     7.1405879223    -2.9809554427    -2.9468193559
          5
Energy: -1.4209650143188755 Kcal/mole
 Ar     1.7197386182     4.0821823388    -5.2751589369
 Ar    -0.5911811738     6.1263812167     1.0230231315
 Ar     2.0516673395     4.7858121318    -1.5021956478
 Ar     5.0014851067     5.5126666100    -4.3462534709
 Ar     5.4166377384     2.7774257592    -1.5398394369
          5
Energy: -1.3346714447464545 Kcal/mole
 Ar     3.7131619098     4.1002357079    -2.8592102340
 Ar     4.0374679232     1.7224025293    -6.8319290026
 Ar     6.9039459811     1.1469653091    -1.4433528097
 Ar     4.0324440969    -0.2890065078    -3.6365620988
 Ar     6.8199600946     4.3869595523    -6.0952336443
          5
Energy: -1.3096178131503375 Kcal/mole
 Ar     3.2116333234     5.7364309386    -5.7813582168
 Ar     7.7315718946     3.1516132535    -7.5847755062
 Ar     4.3989320069     3.0124137311    -3.3278582107
 Ar     6.3586935819     5.2616745303    -1.0252467767
 Ar     7.0380703342     5.7513242024    -5.3426630291
          5
Energy: -2.0727554033684785 Kcal/mole
 Ar     4.7820194166     1.1534459522    -0.0739239127
 Ar     6.7650855496     2.5908499028    -2.7586573912
 Ar     4.0535986570     4.6920014689    -1.1330420759
 Ar     4.3911409652     4.8313603901    -4.8529593303
 Ar     2.9012693606     1.8120037357    -3.2106242963
          5
Energy: -2.0737142815660006 Kcal/mole
 Ar     4.4025661765     4.9354709704    -4.9950657731
 Ar     4.6727665272     1.1206128375    -4.3665134619
 Ar     2.3769896140     2.6870772337    -7.2465381645
 Ar     1.4768700126    -0.7231107315    -5.2814237254
 Ar     1.3480610627     2.7979529367    -3.6511118814
          5
Energy: -2.1291307924846348 Kcal/mole
 Ar     4.2703456878     4.8354581995    -4.9123536270
 Ar     4.6280725384     1.0828185634    -4.3518238579
 Ar     2.4871992468     2.4086306503    -7.2364963329
 Ar     1.3464085258    -0.6360704868    -5.2431365558
 Ar     1.3020661715     2.8169057237    -3.6104724336
