          30
Energy: -121.58490580284356 Kcal/mole
 H      0.8427946413     3.3159346410    -0.1478283061
 F      0.7825795709     3.6272518030    -1.0082612030
 H      1.8613284666     2.4060868910    -4.1839988596
 F      2.5259252377     3.0362055292    -4.2303737828
 H      0.1491166776    -1.0115953863    -0.4014644531
 F      0.1509073184    -1.7981106284     0.0700008877
 H      4.7206285247    -0.8399848924    -0.0741137201
 F      4.2066623743    -1.0069664051    -0.8149544389
 H     -0.1232715904     1.8121266253    -3.4894198805
 F      0.5651097941     1.4021267157    -3.9354245257
 H      2.4045854300    -0.0601070079     1.7100801596
 F      2.7076285211     0.7266455463     1.3494220065
 H      4.9245350412     2.6391062588     0.9322082025
 F      5.6377836756     2.1944141955     1.2988338350
 H      1.3003086086     0.6303739748    -1.4410336252
 F      0.4789808879     0.4992862160    -1.0548655597
 H      1.0937678044    -1.7156237665     1.4422056794
 F      1.6707745355    -1.4646826031     2.1092744650
 H      1.5983036007     1.9833666605     1.3735016022
 F      0.9042506910     2.5809566780     1.3280513043
 H      3.4775536772     3.5874864373    -2.9793186629
 F      3.9867666248     3.9045945774    -2.2857528034
 H     -0.5168405227     3.1129186007    -1.9199271894
 F     -1.0856265609     2.7483811835    -2.5399948585
 H      5.6399791182     0.5429320455     1.3339265501
 F      5.5924633572    -0.3668546374     1.2294304063
 H      3.4043977331     0.2291974281    -1.5583500137
 F      2.8646921879     0.8912331747    -1.8919899316
 H      3.6923741793     3.5435836147    -0.7045985465
 F      3.6050790141     3.3003974637     0.1752474912
