          30
Energy: 5.326127996968282 Kcal/mole
 H      3.4661586148    -0.4978984699     0.9913308762
 F      4.3831586148    -0.4978984699     0.9913308762
 H      1.8861070040     0.6034603255     0.0162832416
 F      1.0248313338     0.6034603255    -0.2985075143
 H     -3.7844088376    -0.1204256526    -1.7341312608
 F     -2.8674088376    -0.1204256526    -1.7341312608
 H      2.8853402306     3.8896829710     1.8435495692
 F      3.8023402306     3.8896829710     1.8435495692
 H     -1.5231975961     4.5807719131    -4.1119567798
 F     -0.8830293203     4.5807719131    -4.7685187180
 H     -3.5271307405    -3.2152384839     0.1233849315
 F     -2.8487427429    -3.8322301570     0.1233849315
 H     -3.5375371409     4.1783558144     2.1444869006
 F     -4.0959862794     4.9056958722     2.1444869006
 H     -2.1094314765    -3.6384227436     3.9480885878
 F     -3.0236725116    -3.5673430013     3.9480885878
 H      4.8616369841     0.0545986265    -4.0497919038
 F      5.7786369841     0.0545986265    -4.0497919038
 H      1.1487607287     0.4664338141     3.9862725785
 F      0.4820114824     0.4664338141     4.6158235634
 H      4.9335394877    -4.8401745976    -1.6020021614
 F      4.3171775430    -4.8401745976    -2.2809623612
 H     -2.3645497518    -2.6029300235    -4.5660058116
 F     -1.5793462737    -3.0765802089    -4.5660058116
 H     -0.6573148290     4.4144306881    -0.6382879682
 F      0.2596851710     4.4144306881    -0.6382879682
 H     -1.2573711716     0.3440889925     2.0142918193
 F     -1.2122095782     1.2599762293     2.0142918193
 H      4.2043517773     3.6647210652    -3.8306522827
 F      5.1213517773     3.6647210652    -3.8306522827
