          30
Energy: -121.62007611991065 Kcal/mole
 H      0.9479961827     3.2112779837    -0.2045985818
 F      0.8697682225     3.4931132246    -1.0737005799
 H      1.8628728896     2.0881416720    -4.2698761385
 F      2.5543551056     2.6785490259    -4.3888740442
 H      0.1596642504    -1.0649164220    -0.2325461803
 F      0.1285087631    -1.8307847528     0.2708066140
 H      4.7191686842    -1.0940928466    -0.0685116779
 F      4.1582905890    -1.2884036140    -0.7674738286
 H     -0.1256138411     1.6230193840    -3.4603467740
 F      0.5415021829     1.1604906639    -3.8868586656
 H      2.4554308655    -0.1291612311     1.7985884396
 F      2.7739580401     0.6267144963     1.3886112161
 H      5.0463292593     2.4408117398     0.7361387938
 F      5.7662575447     2.0031486374     1.0981377891
 H      1.3510732219     0.4735728959    -1.3778543035
 F      0.5428124091     0.4002722886    -0.9509696828
 H      1.0862350160    -1.7417494292     1.6355653190
 F      1.6799990906    -1.4881291745     2.2867258139
 H      1.7043435484     1.9252550447     1.3662541590
 F      1.0343708749     2.5487103313     1.3085556118
 H      3.5575325890     3.2418693877    -3.1786410085
 F      4.0850897536     3.5634036829    -2.5010067892
 H     -0.4615486745     3.0039283222    -1.9550058465
 F     -1.0493686021     2.6419044133    -2.5585747507
 H      5.7490620168     0.3512425819     1.2120759557
 F      5.6812676362    -0.5613095969     1.1525659328
 H      3.4080103772    -0.0580937061    -1.5579062599
 F      2.8983059415     0.6177166660    -1.9105686042
 H      3.7967769102     3.2855803120    -0.9002952660
 F      3.7167464695     3.0881880181    -0.0083757568
