          30
Energy: -121.61487200808457 Kcal/mole
 H      0.9539612615     3.1998442922    -0.2071983549
 F      0.8854353024     3.4885533746    -1.0748620332
 H      1.8642395984     2.0705558199    -4.2886262199
 F      2.5613411706     2.6537055264    -4.4105885825
 H      0.1365117838    -1.0479328074    -0.2152072403
 F      0.0931904891    -1.8078274828     0.2962342008
 H      4.7144552775    -1.0859634561    -0.0729401787
 F      4.1642144946    -1.2754949905    -0.7816022127
 H     -0.1277013025     1.6356855520    -3.4739440495
 F      0.5309195179     1.1623777168    -3.9018310767
 H      2.4696337409    -0.1444201373     1.7681004525
 F      2.7764305344     0.6147720543     1.3553148621
 H      5.0551576337     2.4409914946     0.7061886733
 F      5.7791348608     1.9993997132     1.0551051006
 H      1.3427745243     0.4659797538    -1.3898363958
 F      0.5391212973     0.3998416412    -0.9531943905
 H      1.0887151782    -1.7477664164     1.6284384413
 F      1.7061309032    -1.5094620862     2.2631808053
 H      1.6987471807     1.9064300346     1.3502656149
 F      1.0261559497     2.5276823212     1.2997123520
 H      3.5404732775     3.2364262649    -3.1919330672
 F      4.0549172072     3.5715477457    -2.5108089696
 H     -0.4411900171     3.0202949256    -1.9633478755
 F     -1.0323927503     2.6684786927    -2.5696429081
 H      5.7409811064     0.3433441529     1.2071653677
 F      5.6590130996    -0.5689912401     1.1645698691
 H      3.4025672478    -0.0578869823    -1.5856013357
 F      2.8843842374     0.6078960107    -1.9449178731
 H      3.7771635340     3.2937264517    -0.9086301409
 F      3.7094371441     3.0920427314    -0.0166515464
