          30
Energy: -121.51758377634647 Kcal/mole
 H      0.6515951230     2.2345126695     0.7171024048
 F      0.3343360243     2.7373889092     0.0189970031
 H      1.1717354525     2.7273901941    -3.6137038831
 F      1.6574817193     3.5046641751    -3.5856909801
 H      1.0521382771    -1.8316158971    -0.5822178056
 F      1.3908539510    -2.6461117958    -0.3317040869
 H      5.3400572264    -0.3645743256    -1.0590223206
 F      4.6789129029    -0.5752669259    -1.6585102785
 H     -0.4912982768     1.5080069574    -2.8713591493
 F      0.1991043788     1.3847994040    -3.4621662852
 H      3.5061027750    -0.7692738088     1.3483717073
 F      3.5253981214     0.1326621957     1.1839693553
 H      4.9113592443     2.6979187729     1.0044790263
 F      5.7883915544     2.4397743323     1.0756462574
 H      1.4139306417     0.2486109310    -1.3388469273
 F      0.7469585856    -0.2232772926    -0.9224831671
 H      2.5719383946    -2.6129401271     0.8411260058
 F      3.2123797067    -2.3770739441     1.4535727949
 H      2.1043665971     0.9158602020     1.6755297593
 F      1.2513789557     1.1961098279     1.8619733990
 H      2.5637759942     3.9754919218    -2.2794575356
 F      3.0432607083     4.2461235030    -1.5461486265
 H     -0.9359385865     2.2234466223    -0.9444434682
 F     -1.4855174602     1.9447396253    -1.6235417463
 H      6.2465556685     0.9675142547     0.4746834944
 F      6.4297720852     0.1756234967     0.0501487231
 H      3.4823544876     0.5218195334    -1.8198369296
 F      2.7519644571     1.0762202729    -1.8275326060
 H      3.1462228458     3.4904672221    -0.0659061713
 F      3.3154052217     3.0607032229     0.7262865002
