          30
Energy: -121.59450865540377 Kcal/mole
 H      0.8931620606     3.2435782205    -0.1585711433
 F      0.7831723974     3.5735435847    -1.0070486812
 H      1.8552038407     2.1238188989    -4.3575148973
 F      2.5555413643     2.6985441244    -4.4993149971
 H      0.1272278383    -1.0003058773    -0.2741544908
 F      0.0695534212    -1.7650099925     0.2286280445
 H      4.7106678196    -1.1158227864    -0.0877888857
 F      4.1403986778    -1.3369005672    -0.7710214382
 H     -0.1241049750     1.6735841514    -3.4772927561
 F      0.5360050431     1.2180163864    -3.9218169686
 H      2.4804588727    -0.1349878580     1.7379656446
 F      2.8093154456     0.6256532578     1.3453240175
 H      4.9994087292     2.4434050216     0.6623961620
 F      5.7252779478     2.0220376633     1.0317908381
 H      1.3663673014     0.4674634090    -1.4432311060
 F      0.5674491759     0.4411676600    -0.9938678207
 H      1.0639966986    -1.7115492884     1.5644831852
 F      1.6808498974    -1.4821766930     2.2030513833
 H      1.7174369169     1.9053381349     1.3457964612
 F      1.0323291760     2.5143267910     1.3203170572
 H      3.5269220208     3.2821291260    -3.2780633373
 F      4.0246917901     3.6071628716    -2.5798747375
 H     -0.4925330357     3.0364092036    -1.9305046837
 F     -1.0588719654     2.6670416209    -2.5499534753
 H      5.7314183510     0.3665501005     1.1524640726
 F      5.6845631607    -0.5476370626     1.0981002798
 H      3.4073120970    -0.1422386711    -1.6317667747
 F      2.9068834394     0.5226748141    -2.0169293583
 H      3.7399127133     3.2909219220    -0.9805216115
 F      3.6560079562     3.0643930666    -0.0959122800
