          6
Energy: -5.503564658820356 Kcal/mole
 Xe    -1.7976503231     2.0375187965     2.0102038948
 Xe    -2.5562857098    -1.2685696875     4.8340881722
 Xe     0.6570063883     0.2198956644     7.4308851678
 Xe    -2.6155848082     2.8987622782     6.2424341880
 Xe     1.4705068808    -0.6579774725     3.2111393608
 Xe     1.4256572886     3.5041727726     4.6292888404
