          6
Energy: -5.326050550230798 Kcal/mole
 Xe     3.4762034226    -0.4267911631     5.1753043526
 Xe     1.9807966841    -3.8439581020     2.8123966187
 Xe     5.9684901327     0.4298287882    -1.4801054747
 Xe     5.9169911297     2.1347393128     2.5769348953
 Xe     2.3365125822     0.1064178607     0.9527927853
 Xe     5.9773452209    -2.2350139035     2.0082676434
