          6
Energy: -2.8065744532069665 Kcal/mole
 Xe     0.3006020125     0.3010718707     5.5808505541
 Xe     1.7652940038    -2.3421234129     1.8375157230
 Xe     4.6281936753     1.2248299300     0.1997503288
 Xe    -0.0050227176    -3.7597579345     6.0748500125
 Xe     0.4165849467     2.0806769445     1.2319392869
 Xe    -5.2010795527    -3.3993680009    -0.1123438777
          6
Energy: -3.5167484614693607 Kcal/mole
 Xe    -6.2887865310    -4.1105617034     0.3523992376
 Xe    -3.4585394651    -7.8902256732     0.5150105976
 Xe    -2.8928448640    -4.2285937832    -2.2905569854
 Xe    -2.9811065389    -4.2873317574     2.9477061398
 Xe    -5.8928120513    -5.7789832156     6.2523977817
 Xe     0.3363092849    -6.4961249264     3.2121752464
          6
Energy: -4.045523617232027 Kcal/mole
 Xe     4.0755690021    -1.6061059159     9.3782245315
 Xe    -0.8413091648    -9.1827487821     7.5069747216
 Xe     0.2065332139    -1.3741000242     5.5001282160
 Xe    -1.1391543396    -5.3417804549     5.1646195252
 Xe    -1.6201879908    -3.5292379420     9.2632575744
 Xe     2.1811486696    -5.1107670007     7.7026762437
          6
Energy: -4.82033630948559 Kcal/mole
 Xe     4.7151273179    -3.5806321595     6.9686640317
 Xe     5.5149714148    -7.4501734578     9.0266680078
 Xe     0.8501328970    -4.0410581349     5.0044451332
 Xe     1.7201412998    -9.8894659260     9.8351837393
 Xe     1.6299317959    -5.5534472769     9.3437245758
 Xe     2.9422497644    -8.1597206287     6.0254088186
          6
Energy: -4.7539658921635235 Kcal/mole
 Xe    -1.0779447157    -0.2617517902     3.7763040671
 Xe     3.2762991316     0.6420683747     6.0589020858
 Xe     5.0443010829    -3.4231817520     4.1958854277
 Xe     1.3997490491    -3.3433175552     6.2432804651
 Xe     0.4423835747    -4.2420135388     1.8757856119
 Xe     2.4134898165    -0.5337077257     1.5561786795
          6
Energy: -4.736986322617877 Kcal/mole
 Xe    -0.5358292700     3.7080683783    -0.7701971920
 Xe     3.2851509123     5.3261812406     4.2732306092
 Xe     3.1022663448     0.4302028120     4.9417974400
 Xe    -0.4361182050     3.0711745403     3.6317394281
 Xe    -0.5750078702    -0.6509606863     1.1924910450
 Xe     3.1828479438     2.5073269712     0.7928313761
          6
Energy: -5.185642188040858 Kcal/mole
 Xe     0.1459676827     9.5795104595    -0.9839862660
 Xe     4.6150489336     5.3377709316     3.1399034520
 Xe     0.7516707484     3.5526833485     2.8860107835
 Xe     0.9651344886     8.0133955401     3.0128420172
 Xe    -1.9340142598     5.8941526244     0.3405850370
 Xe     2.4328691442     6.0233657682    -0.7598690618
          6
Energy: -4.91520835488118 Kcal/mole
 Xe    -1.2404253112     8.8579100911    -0.5043985570
 Xe     5.7904437639     7.5820768209    -3.6112903534
 Xe     3.5469636825     3.6468604896    -3.0713233827
 Xe     2.9618303667     6.8343719546     0.4617892875
 Xe    -0.3746920390     4.6355231981    -1.5001301785
 Xe     1.3391026889     7.8130645491    -3.7859274877
          6
Energy: -5.275997665344522 Kcal/mole
 Xe    -0.1220408491     5.9357273040    -1.5861033140
 Xe     6.3521133057     8.6622162562     0.2534712762
 Xe     6.5353498732     4.2089070678    -0.0358440625
 Xe     2.8756484899     6.3393541500     1.5918395143
 Xe     2.5532949378     2.6721836214    -0.9306337660
 Xe     3.9959896405     6.5281893102    -2.7464057804
          6
Energy: -5.3259820245721325 Kcal/mole
 Xe    -0.2455359846     6.0906260398    -1.5171095700
 Xe     6.3752256800     8.6343360145     0.2200113522
 Xe     6.4778686435     4.2197514821     0.1685115152
 Xe     2.8828705093     6.3281550512     1.5947071786
 Xe     2.4926852115     2.6900960975    -0.8576038695
 Xe     3.9638771772     6.4049101551    -2.7273971630
