          6
Energy: -0.16747332707723078 Kcal/mole
 Xe    -3.1803285497    -4.1547427650     5.8843421151
 Xe    -4.3294627692    -3.2702711979    -5.1221507282
 Xe     2.8093338594    -1.5351607980     0.1596189327
 Xe    -4.4586228326     2.3798201753     0.6676407749
 Xe     4.8018529607     6.2240354432    -1.2289763472
 Xe     3.8447411326     4.0525744667     6.5253729738
