          6
Energy: -5.3259820245721325 Kcal/mole
 Xe    -0.2455359846     6.0906260398    -1.5171095700
 Xe     6.3752256800     8.6343360145     0.2200113522
 Xe     6.4778686435     4.2197514821     0.1685115152
 Xe     2.8828705093     6.3281550512     1.5947071786
 Xe     2.4926852115     2.6900960975    -0.8576038695
 Xe     3.9638771772     6.4049101551    -2.7273971630
