          6
Energy: -1.6095100488437928 Kcal/mole
 Xe    -1.4605010885     2.8312878413    -2.1549622346
 Xe     3.1422599663     3.2975378863    -2.6736758364
 Xe     0.9004544960     2.7360898087    -6.8568354450
 Xe     6.7899644225     4.9471424044    -9.5728920680
 Xe     1.7271590200     7.4125071981    -0.2056507110
 Xe    -9.4973950709     5.2435451562    -3.7964824192
          6
Energy: -1.3257581898030282 Kcal/mole
 Xe     6.7687730077    -1.3237262692     2.4754118679
 Xe    -2.9722196208     1.9605749753     7.2599487969
 Xe    -6.3038082086     3.3024806463     3.7388444038
 Xe    -2.1740242939    -1.0659424746     2.4115447391
 Xe    -5.1566557422    -8.1344428835     5.8306080330
 Xe    -2.4566425605     2.5756417108     0.3142215312
          6
Energy: -0.9464719697659938 Kcal/mole
 Xe     7.1011963013    -8.0484706346    -0.9454165791
 Xe    -5.7012852709     3.3035461664     3.1614842726
 Xe     8.5717910894     0.9014342450    -1.0538971573
 Xe    -5.7193987588     7.9389508476     3.2355248353
 Xe     5.8208542238    -4.3569595545    -3.2460059155
 Xe    -9.4690833051     8.2588416411    -6.1731316533
          6
Energy: -4.686810922045492 Kcal/mole
 Xe    -0.7685521681    -6.7739646325    -5.1853912081
 Xe    -1.3291055673    -2.4681003790    -3.9043799709
 Xe     2.1813111073    -3.9771569561    -2.2390146590
 Xe     1.8030347969    -3.5793609530    -7.0520532988
 Xe     1.9029566079     0.2396551597    -3.3560854012
 Xe     3.9435754833    -6.6494856762    -5.1287583020
          6
Energy: -3.7316508273283424 Kcal/mole
 Xe    -5.4573213260    -3.7728744565    -6.4954678440
 Xe    -5.7285341340     0.1666642533    -4.8019082323
 Xe    -3.5678625336     1.2282523738    -1.0967409432
 Xe    -1.7498469869    -3.2988803677    -3.6963757789
 Xe    -6.5079904549    -0.8947750059    -9.8969368668
 Xe    -1.5700650780    -0.1363303632    -6.6791601142
          6
Energy: -4.511149637905425 Kcal/mole
 Xe    -8.5374568896     4.0765862662    -5.8843221008
 Xe    -5.4109342065     6.7973022094    -4.4811485171
 Xe    -7.9987340310     4.4683485034    -1.7734814374
 Xe    -9.3559484789     8.1425853047    -4.0740374815
 Xe    -6.2284309294     4.1864515164    -9.5364756497
 Xe    -5.0366131279     2.3596041978    -3.9379575554
          6
Energy: -4.902593429537873 Kcal/mole
 Xe    -9.4589927711     2.4387617056    -4.4766635426
 Xe    -3.8150378548     4.4136597592    -3.4716156727
 Xe    -6.3319763978     1.5253232436    -1.0788460889
 Xe    -7.8624853208     5.4672190482    -2.0630743326
 Xe    -6.6550641744     4.5810753304    -7.0992366911
 Xe    -5.7232483620     0.9938671577    -5.3763669766
          6
Energy: -5.0447651299226335 Kcal/mole
 Xe    -5.2151757077    -0.6481423465    -5.8285773556
 Xe    -2.9594618097     2.1893641957    -2.9638852001
 Xe    -1.6608367266    -1.9582274866    -3.3435856985
 Xe    -5.5262408386    -0.8620420409    -1.6124511626
 Xe    -5.0755022631     3.8546083982    -6.6504311618
 Xe    -1.0922513476     1.1454702578    -6.8387889691
          6
Energy: -5.232481272932247 Kcal/mole
 Xe    -5.7093976597     1.0696917769    -3.9420624529
 Xe    -1.5661719479     2.4784407536    -5.0303768897
 Xe    -2.5713185714    -1.8630546377    -4.6362046531
 Xe    -2.2829312195     0.7125218400    -1.2281371183
 Xe    -5.0907288942     4.6843272042    -6.6686246820
 Xe    -3.9818161880     0.5848741568    -8.1076236921
          6
Energy: -5.325895658959139 Kcal/mole
 Xe    -5.7049070366     1.0223117336    -4.0223307561
 Xe    -1.5900315958     2.4001449578    -5.0438760712
 Xe    -2.5155013108    -1.8990242956    -4.8383817073
 Xe    -2.4149547400     0.5147716359    -1.1499687791
 Xe    -5.1036442458     4.5402050901    -6.6201665771
 Xe    -4.1424844003     0.5136959232    -8.1181384335
