          6
Energy: -5.325895658959139 Kcal/mole
 Xe    -5.7049070366     1.0223117336    -4.0223307561
 Xe    -1.5900315958     2.4001449578    -5.0438760712
 Xe    -2.5155013108    -1.8990242956    -4.8383817073
 Xe    -2.4149547400     0.5147716359    -1.1499687791
 Xe    -5.1036442458     4.5402050901    -6.6201665771
 Xe    -4.1424844003     0.5136959232    -8.1181384335
