          6
Energy: -0.678757095954689 Kcal/mole
 Xe     6.7018449298    -5.3620353094     2.3386039117
 Xe     8.1337594956     4.2555334944    -7.4017758159
 Xe     0.9019297680    -3.7306136876    -0.8888482472
 Xe     2.1478865259    -5.2199774393    -5.9200500436
 Xe    -2.0584231890     9.4511695120     6.5786983513
 Xe     8.9784171825    -5.5160122776    -1.1209877192
          6
Energy: -2.088390532307039 Kcal/mole
 Xe    -1.6223982714    -0.3696707873     0.0682722348
 Xe    -3.6746269603     4.5094655470    -0.5655684001
 Xe     3.7918860185     9.8185102300     9.3765050264
 Xe    -5.2824314462    -4.0863850148     0.0102434128
 Xe    -6.0178859693     0.1998427350     1.0689448191
 Xe    -3.2948426429     8.8827571894    -1.2707557310
          6
Energy: -4.01621313137556 Kcal/mole
 Xe     0.3729598816     5.9336823677     1.6912887635
 Xe    -3.8413812570     0.2788119975     6.7425412601
 Xe    -0.7327290461    -2.0388829799     5.2951988677
 Xe    -0.4003716167     2.3635495929     5.1103577409
 Xe    -3.2359357522     3.3596618158     1.7947003329
 Xe    -3.8465981958     4.7988008020     5.8630281698
          6
Energy: -4.34979130858651 Kcal/mole
 Xe    -1.0580833344     7.2501793223    -2.7175693490
 Xe    -2.0295196208     3.7856304483     2.5894415442
 Xe    -0.3815634259     5.4631299874     6.5211769416
 Xe    -0.4307494905     7.5021705603     1.7531475275
 Xe    -4.2412353916     6.9110002736     0.0472401224
 Xe    -4.3970814712     7.0883906710     4.6015412877
          6
Energy: -4.287344733316635 Kcal/mole
 Xe    -2.0262237954     1.3356043322     0.4393591432
 Xe    -4.9160116834     3.8060128222    -2.0417878441
 Xe    -0.9110446596     2.6800863502     4.7269548865
 Xe    -2.9699609566     5.2914733659     1.5778007279
 Xe    -4.9265704955     0.4889444825     3.9551293626
 Xe    -5.9237546054     4.7503716855     5.0447945878
          6
Energy: -4.474890133526773 Kcal/mole
 Xe    -0.9603495859     2.5467300893    -2.1937130850
 Xe    -3.9087467905     5.3081192874     4.1574061198
 Xe    -0.6276631381     4.7184488630     1.5685188244
 Xe    -4.1102947679     5.3709846665    -1.1601860659
 Xe    -3.1040118695     1.4754259199     1.4248454475
 Xe    -1.7845359853     8.6598749128     2.5696748800
          6
Energy: -4.858987113920947 Kcal/mole
 Xe    -0.6373181006     5.3311095454     2.1309150177
 Xe    -1.4909616701     1.4353399549     8.8181053844
 Xe     1.9929016186     4.9827186817     9.0653773034
 Xe    -1.4919928579     5.8516075359     6.5590724150
 Xe     1.3704065840     2.7616652024     5.1290749783
 Xe     2.6987067513     6.9084183225     4.7987292993
          6
Energy: -5.20821465969674 Kcal/mole
 Xe    -3.0104324305     2.4972784677     2.2460368401
 Xe    -1.6012375314     1.6002651171     6.2183273922
 Xe     1.3404712340     5.0472119631     6.0099414131
 Xe    -2.7109988161     5.9853542764     5.3029046777
 Xe     1.2999374929     1.4821941348     2.7626387910
 Xe     0.0863302211     5.4951663153     2.0267383095
          6
Energy: -5.355228726495389 Kcal/mole
 Xe    -1.6209939169     1.9602593552     1.7910991611
 Xe    -2.5585768380    -1.3740607988     4.4831604731
 Xe     0.6380414429     0.2715722607     7.4756164400
 Xe    -2.8992101494     2.7684888758     6.0114924658
 Xe     1.5303285933    -0.6868120527     3.4089945594
 Xe     1.0744126968     3.6914621669     4.7665420328
          6
Energy: -5.503564658820356 Kcal/mole
 Xe    -1.7976503231     2.0375187965     2.0102038948
 Xe    -2.5562857098    -1.2685696875     4.8340881722
 Xe     0.6570063883     0.2198956644     7.4308851678
 Xe    -2.6155848082     2.8987622782     6.2424341880
 Xe     1.4705068808    -0.6579774725     3.2111393608
 Xe     1.4256572886     3.5041727726     4.6292888404
