          5
Energy: -0.18203142758495056 Kcal/mole
 He     1.7303500831     1.6724370429     3.1990703291
 He     2.1830315550    -1.1652664129     3.3663943455
 He     1.5101149574    -2.3604294896     0.8467040493
 He     2.7183408379     0.2379189219     0.9177661663
 He     0.0117699143    -0.1223055564     1.7993165450
