          5
Energy: -0.18189654519460025 Kcal/mole
 He     3.8148772454    -5.1773716563     1.8050488331
 He     3.6903120200    -4.0181256936     4.4290526609
 He     4.2738664120    -2.3690207274     2.1332415599
 He     6.2223473678    -4.2060513057     3.0745894980
 He     4.9561945926    -6.5708491881     4.0232613335
