          5
Energy: -0.022409114248629552 Kcal/mole
 He    -0.1832240584     6.3650015081    -4.6076703242
 He    -4.5365320221    -4.0958629893     3.3419902915
 He     1.2151743619     0.1300892369    -6.4687798722
 He     1.1943987104     3.9579430391    -3.6172265487
 He    -4.6410988121     0.6991572781    -0.3013047763
          5
Energy: -0.006151183932193359 Kcal/mole
 He    -6.9212600316     4.1298128627     7.3783534923
 He    -6.3053178639     3.9450667168    -3.5241422030
 He    -3.8840506283    -6.9769038172    -0.1154438392
 He    -0.4019590380    -6.7207992663    -1.8283995339
 He     0.2878274547     1.0314045432    -5.7207388949
          5
Energy: -0.002502032617174831 Kcal/mole
 He     5.1052336671     0.1392969528     3.0129528724
 He     4.8221195384    -4.9337597656     1.7616111954
 He    -5.8646643529     4.8772164521     5.3596169346
 He     3.2746498987    -0.1419147955    -3.7252636778
 He     2.2029562513     4.6174239390     3.2363212314
          5
Energy: 0.026105600789293505 Kcal/mole
 He    -3.7020907124    -4.5266096446     5.1616765293
 He     1.8519350292     6.5605644538     3.5035342966
 He     2.1166069728    -6.7353399063    -5.6907950545
 He    -6.8579634475     0.8525987081    -1.1918011227
 He     1.1906423079     4.6816856222     2.0609647439
          5
Energy: -0.004265298886759111 Kcal/mole
 He    -7.3091644976     3.7348341341    -4.0377256739
 He     6.0954979825     6.3809931820    -0.6135897786
 He    -3.2437444862     6.4966153629    -3.3242408618
 He     2.6052810914     5.1217501271    -3.3477656160
 He    -3.3878075516    -0.4325328681     6.3871298958
          5
Energy: -0.00526555624547318 Kcal/mole
 He    -6.8242061063    -0.8711365781     3.7992622296
 He     2.8825156597    -4.4618170944    -1.6138357055
 He    -5.2300354942    -4.7836137931     2.4687122841
 He    -5.1505478238    -1.7383445930    -7.3094100483
 He     6.5805835352    -4.7779387659    -4.3157879935
          5
Energy: -0.005385833811885109 Kcal/mole
 He    -2.5206978318     0.5681868303     5.4345035209
 He    -1.7372559239    -1.4000915131    -7.0193315461
 He    -3.0029143695     1.7847920075    -2.0210243294
 He     5.4458368736    -2.5618857754    -3.8083820508
 He    -2.4953056352     4.2872786497     3.6622134889
          5
Energy: -0.009753467868184765 Kcal/mole
 He     3.2466032631     1.2744180174     1.6964504613
 He    -5.7817812030     7.4327652300    -6.3321485216
 He    -1.2663381588    -4.0473293855    -2.0965047778
 He     5.0430476915    -6.6056631490    -0.9477304697
 He     1.4646471559     3.5529775823     3.7846176180
          5
Energy: -0.004316830241020715 Kcal/mole
 He    -4.9078210875     5.6177308537     3.8493817290
 He    -5.4453526028    -0.3246239955    -2.1444389496
 He    -3.8100763687     0.6003195228     3.2266244902
 He     1.9452486132     0.1702206027    -7.1796488531
 He    -3.2453964203    -3.9276188318     0.6535249439
          5
Energy: -0.18197309980246723 Kcal/mole
 He    -5.0830775541     0.9536527829     1.3110284692
 He    -6.0084779713    -0.2499478671    -1.1353314502
 He    -6.8839249317    -1.2930121707     1.4024790005
 He    -3.3159808559     0.6628787879    -0.9184067786
 He    -4.1621523003    -1.6502928977     0.5673192123
