          5
Energy: -0.0015775914502326896 Kcal/mole
 He    -2.5930804242     2.2961852534     0.2974187732
 He     0.8298049543    -4.1125314304     4.2505920804
 He     0.8428463578    -3.3045624044    -4.6467177928
 He     4.4007467696     0.1331669633    -1.6342397975
 He    -4.9898445263    -4.2884260959    -3.9914805806
