          5
Energy: -0.004524466311502002 Kcal/mole
 He    -3.4156225853     2.6535919576    -3.5006850528
 He    -4.8951682001     2.2049598451     3.2914181621
 He    -6.2489724756    -1.4613349167    -5.7789698706
 He     4.8444312215    -3.4461085188     1.1200340626
 He    -4.0856023580     4.7256723372     6.6581410151
          5
Energy: -0.01181822333411395 Kcal/mole
 He    -1.2245110722     6.8449800189     3.2091135447
 He     1.5927473745    -3.2276731586    -2.6478443360
 He    -5.6869156683    -5.6466459213    -1.8636640876
 He    -2.1920440564    -5.4772102071    -1.0899966417
 He     2.9819920307     5.4749794860    -1.0815811238
          5
Energy: -0.001293288189491926 Kcal/mole
 He    -0.0322194452    -4.3119141755     2.8696831837
 He     2.8272810554     5.7164171247     1.7169435206
 He    -2.4508425765     7.4011906534    -0.4905560146
 He     1.2151164335     2.6571198717    -4.7360096093
 He    -0.7291497814    -7.2088299516    -2.4005663031
          5
Energy: -0.002127859150327368 Kcal/mole
 He    -7.0677509388    -5.1934213164     6.4881847774
 He    -6.2785121026     0.7660622438     6.1705365136
 He    -0.7611917456     0.9705925188    -6.0755745926
 He    -0.0648573448     1.1368971809    -1.1172144612
 He    -0.3321117735    -5.7984277458     1.9846765865
          5
Energy: -0.009379247708925747 Kcal/mole
 He    -3.9452181726     1.5053879198     4.5188574644
 He     4.8968793068    -4.3775467029    -5.6288205548
 He    -2.0873296293     0.0356456546    -2.1345046718
 He     0.8294410852     1.5510951453    -0.4719849003
 He     5.6763799395     2.9521780477    -2.6354065885
          5
Energy: 0.1592241322891055 Kcal/mole
 He     0.6014810701    -1.7529850820     7.0930293056
 He     4.4464837692     1.6043605562     4.8577946674
 He    -5.6497990630    -2.9016629017    -0.9964187233
 He    -4.9009499797    -4.0448071580    -2.8178620951
 He    -3.9676105252     6.4878895970    -4.6316834722
          5
Energy: -0.016588525452723463 Kcal/mole
 He    -0.7413906926    -4.1916979203     0.6461784356
 He     6.1592210548     1.9258637177     2.1216115460
 He    -0.1609339341    -0.5934189211    -6.6433803827
 He    -0.7115267537     5.6839882811    -0.4134372875
 He     4.5033775230     1.5840623674     4.7861084045
          5
Energy: -7.540377573815462E-4 Kcal/mole
 He     3.5723490654     7.1121911867    -6.1559615417
 He     0.8534704442    -6.2864434267    -0.1910836615
 He     4.1930653215    -7.2232957633     5.7146415158
 He    -4.7550962988     6.8917778421    -1.0213619642
 He     6.4843512680    -5.5390271072    -2.3233345425
          5
Energy: -0.01893709220457606 Kcal/mole
 He    -6.0111385573     6.6606016196     7.3550426131
 He     2.1331631380    -1.6035826950     2.7973644608
 He    -1.6676088191    -0.9260026799     2.0328680372
 He     5.7779358937     1.5497754177    -2.3320437256
 He     4.7168962179     3.0104687951     0.5077208514
          5
Energy: -0.1819666546695596 Kcal/mole
 He     3.1931517513     2.1236117690     3.3046911595
 He     3.9033198948     0.2412652367     1.2581458596
 He     1.5979559791     1.9170787944     0.9245695631
 He     3.2975993874     1.3039506102    -1.3079637294
 He     4.2237746731     3.0484713111     0.7888428760
