          18
Energy: -70.6085158221178 Kcal/mole
 H     -1.9103157964     2.9722111603    -1.6392671295
 F     -2.4763538385     2.2663366483    -1.7883681293
 H      0.0345631036     3.8929033383    -0.9078826840
 F     -0.6950273591     4.0772522835    -1.4319077055
 H      4.2408285026     2.4190149862    -0.6446753075
 F      3.5347860379     2.7522134938    -1.1256865262
 H      2.5533088078     0.4157676191    -2.8026065333
 F      3.2903147924    -0.0645665651    -3.0614312813
 H      0.3572442360     0.8359331672    -2.5396606814
 F      1.1677876389     1.1777015032    -2.2806186068
 H      4.5681294212    -0.4083517933    -2.0554876327
 F      5.2338316607    -0.5057602332    -1.4323976520
 H      5.4726399955     0.7746279694    -0.4044901672
 F      5.4350446302     1.5597165759     0.0678566000
 H     -1.7371676426     0.9943887993    -2.5382773452
 F     -1.1645763010     0.3787639473    -2.9043841562
 H      2.1104937449     3.2217947549    -0.4027088417
 F      1.3391501384     3.4868924337     0.0163869246
