          18
Energy: -70.59818588123447 Kcal/mole
 H     -2.0564391317     2.7586504241    -1.1858014522
 F     -2.5780044580     2.0153308316    -1.3136083134
 H     -0.1541805273     3.7842097188    -0.5254707095
 F     -0.8998146779     3.9321798249    -1.0383289367
 H      4.1381278292     2.5971493121    -0.3863298039
 F      3.3907857213     2.8881822420    -0.8309291826
 H      2.5427596668     0.5261288189    -2.6045659453
 F      3.3008723769     0.0934455571    -2.8855273548
 H      0.3319816340     0.8365532817    -2.2846619560
 F      1.1347965296     1.2057210690    -2.0395244676
 H      4.6129088298    -0.1693438411    -1.9026694282
 F      5.2946618492    -0.2318887701    -1.2925957012
 H      5.4888220645     1.0370327332    -0.2383435830
 F      5.4193862367     1.8072924199     0.2543710208
 H     -1.7773561552     0.8551046414    -2.1764006720
 F     -1.1780671066     0.3124613948    -2.6091591995
 H      1.9560062444     3.2337108726    -0.0620155895
 F      1.1768847006     3.4324074415     0.3788679478
