          18
Energy: -70.60359567894044 Kcal/mole
 H     -1.9109019906     2.9731097527    -1.6224978309
 F     -2.4755467049     2.2697903446    -1.7880489008
 H      0.0253676860     3.8739783817    -0.8688409480
 F     -0.7019864491     4.0746113197    -1.3899852526
 H      4.2381308954     2.4374409812    -0.6779120083
 F      3.5191291871     2.7656283447    -1.1429051244
 H      2.5494980589     0.3671928731    -2.8031821263
 F      3.2901569968    -0.1121303573    -3.0533072519
 H      0.3536241982     0.8271289487    -2.5736099262
 F      1.1677648349     1.1397748685    -2.2902081754
 H      4.5535994026    -0.4471079909    -2.0233812124
 F      5.2116245934    -0.5342408689    -1.3906887833
 H      5.4740891879     0.7846198101    -0.4236264902
 F      5.4520395728     1.5876208810     0.0186314601
 H     -1.7424107820     1.0235529343    -2.5881127949
 F     -1.1745318416     0.4182231119    -2.9779567575
 H      2.0988693025     3.1925810299    -0.3918957748
 F      1.3277844779     3.4353182499     0.0409966313
