          18
Energy: -70.60337779955323 Kcal/mole
 H     -1.9061918309     2.9717534773    -1.6246442475
 F     -2.4672438664     2.2662949100    -1.7932794253
 H      0.0254996334     3.8894938042    -0.8695936943
 F     -0.7068349047     4.0826792472    -1.3865603363
 H      4.2229590763     2.4368784654    -0.6725631785
 F      3.5168791919     2.7700773745    -1.1535191889
 H      2.5558500402     0.3826920969    -2.7910145519
 F      3.2974918017    -0.0972435524    -3.0370191662
 H      0.3564244000     0.8318864183    -2.5784023872
 F      1.1669346411     1.1493938477    -2.2900429216
 H      4.5667014937    -0.4366386668    -2.0166991092
 F      5.2273510121    -0.5243109866    -1.3868223132
 H      5.4526784429     0.7855435869    -0.3964358901
 F      5.4113041460     1.5831167185     0.0541795417
 H     -1.7334570547     1.0234790140    -2.5975993274
 F     -1.1654416209     0.4192469106    -2.9889444848
 H      2.1050535814     3.2146938661    -0.4035975233
 F      1.3385295428     3.4653783789     0.0328508394
