          18
Energy: -70.60522267857982 Kcal/mole
 H     -1.9147873766     2.9764870458    -1.6254106019
 F     -2.4764516505     2.2715461627    -1.7941725491
 H      0.0206003420     3.8791250349    -0.8661559897
 F     -0.7088163201     4.0833131617    -1.3830191648
 H      4.2336542549     2.4265361031    -0.6728499149
 F      3.5176636163     2.7518790461    -1.1444412369
 H      2.5487021042     0.3832381444    -2.8016604865
 F      3.2833892959    -0.1063613358    -3.0494831637
 H      0.3573875776     0.8425941320    -2.5759865485
 F      1.1697462364     1.1657228677    -2.2993094266
 H      4.5609786311    -0.4371444448    -2.0368360597
 F      5.2269913997    -0.5231622562    -1.4124027741
 H      5.4749230924     0.7858217875    -0.4206708705
 F      5.4422326876     1.5823904762     0.0324280830
 H     -1.7380103837     1.0223517435    -2.5836369022
 F     -1.1675671516     0.4159873622    -2.9680920440
 H      2.0957415153     3.1853411026    -0.3959345870
 F      1.3265097362     3.4318340456     0.0381307296
