          6
Energy: -5.325166506490813 Kcal/mole
 Xe   -14.5970316426    18.6565060651     5.7885054769
 Xe   -11.7743100032    15.4000798057     4.8589272518
 Xe   -12.8291238049    21.3078784829     8.8610987554
 Xe   -16.0453790924    18.4916638983     9.9485995031
 Xe   -12.0436691998    16.9466579132     8.9824107624
 Xe   -10.2644165587    19.4232065458     5.8222442011
