          6
Energy: -3.0330428926761264 Kcal/mole
 Xe     8.8247680552     1.0538852679     6.8629743616
 Xe    10.0337458810     3.3150847050    10.4584525431
 Xe    25.5979749509   -10.2759132692     1.7634257064
 Xe    10.1288416496    -1.0856737233    10.5022963137
 Xe    22.5568439702    -7.5941877838     3.5131578871
 Xe    13.0686061906     1.1397048997     8.0845880377
