          6
Energy: -0.01572432052449922 Kcal/mole
 Xe     1.9952578539    15.8414732743     1.0518768832
 Xe    -2.0869559730    -4.8620051288   -13.4400059427
 Xe    -7.8332681460     8.3892490662     7.4754115664
 Xe   -15.9662318046    13.7080707580     8.8084624137
 Xe    -7.0472143471    18.3418679025   -24.6955401930
 Xe   -24.6258696965    18.1808100166     7.9610000151
          6
Energy: -0.8980860919510992 Kcal/mole
 Xe   -21.0798467532     6.6928693947     1.8896992023
 Xe   -24.6079706771    -4.9537257478   -13.0964933697
 Xe   -11.6718165919    16.3219155831     4.9821490160
 Xe   -25.4539481280     7.7422578872     2.5066489881
 Xe   -25.4383095175    -1.0084983883   -11.8329742956
 Xe   -16.1501274962    13.5506873983     8.9363831062
          6
Energy: -0.3234508559145524 Kcal/mole
 Xe   -12.7814289583    -5.8313869308    -3.8509838169
 Xe    24.5195492854     9.8024059529    -8.2030695921
 Xe    16.1918980393   -24.0385838655    18.9647778206
 Xe   -10.0366531546    -8.2879884747    -0.5057684131
 Xe   -17.7707750277     7.6753013420    -3.2079239085
 Xe   -18.0745149036     4.1668905625   -14.8299602109
          6
Energy: -0.4117530060544967 Kcal/mole
 Xe   -22.1779256838     1.0707612036   -11.7038118988
 Xe   -24.6410605989    25.2550827864    11.5146848391
 Xe    -9.8213443702    13.7987400197   -25.6836251584
 Xe     4.5724104971    -1.3806394818   -16.0230849632
 Xe   -21.2749183684   -13.2809956530    14.6646496667
 Xe   -21.1331106221    -1.4814913902   -15.3932404880
          6
Energy: -1.161663226281491 Kcal/mole
 Xe   -22.4696257041     6.7208279425   -16.1497453235
 Xe    -3.6729231686    -4.3173383933    17.7115456570
 Xe   -16.2717719371    -0.0097683773   -17.8070826001
 Xe   -21.1747075987     8.7282716376   -12.6292443759
 Xe    22.6450704451   -19.1269693804     4.4690620114
 Xe   -18.3060686479     4.6596319060   -15.6973493526
          6
Energy: -2.510374650358055 Kcal/mole
 Xe   -22.7072736157     0.9991576135   -14.6871638513
 Xe   -11.2327218386   -17.9089016837     8.7356804603
 Xe   -22.3289503167     0.3978663375   -10.1849088770
 Xe   -25.2260618411    -1.7602362948   -12.4628894873
 Xe    -3.2539706051   -14.1874514058    -4.0212745632
 Xe   -25.5496255763     2.7646440941   -11.6754247186
          6
Energy: -2.855176787080855 Kcal/mole
 Xe   -19.9217120994     6.2285262107   -11.7087328407
 Xe   -18.5197961406    -6.1397110295    10.0875017741
 Xe   -19.2218165281     6.2078872138    -7.5279507623
 Xe   -16.6248979507     3.2534470662    -9.8166243814
 Xe   -15.5877444313    -8.8423493637     7.8842861256
 Xe   -21.1453038949     2.8385955026    -9.2986319590
          6
Energy: -2.957531796946785 Kcal/mole
 Xe   -15.7995855715     1.3737427943   -11.5569349491
 Xe   -17.0871578118    -1.3823876130    18.9467800152
 Xe   -15.6499128821     5.7442442004   -12.0959808439
 Xe   -16.8069762371     4.1303174121    -7.9597700301
 Xe   -15.9773108845     1.8082623977    16.3290627124
 Xe   -19.5428865674     3.8605252857   -11.4236726067
          6
Energy: -3.004816055063092 Kcal/mole
 Xe   -18.8865314210    -0.5338206140   -12.7202307018
 Xe   -22.3438674784     0.7838841041    23.2746840422
 Xe   -16.0020047245     2.7438657480   -13.6060173275
 Xe   -18.0957238793     2.7077425727    -9.8067805506
 Xe   -25.1251034072     1.9420479152    20.0773445784
 Xe   -20.1994510373     3.6063011926   -13.6349424659
          6
Energy: -3.0303905575925087 Kcal/mole
 Xe   -18.7244079182    -0.5346190738   -12.6714945266
 Xe   -21.8203643411     0.8217874594    22.7222110907
 Xe   -15.9810142567     2.7908262797   -13.5848357010
 Xe   -18.3207806271     2.8128404471    -9.8479880071
 Xe   -24.7591459008     1.9722064389    19.6304292237
 Xe   -20.3561083698     3.4358973043   -13.7332281744
