          6
Energy: -0.023826741502370193 Kcal/mole
 Xe   -17.0211286577    23.2084251465    19.5004955315
 Xe    14.7540443628    -5.5362447372    -4.3096418381
 Xe     8.9809111478    19.9390799614    14.4437447855
 Xe     3.3129948502   -16.9410304673   -12.6747878153
 Xe     6.7632789857    12.9881214474    10.9528542619
 Xe    17.4722078968    19.6744107308     1.5509827967
          6
Energy: -1.0079063848598442 Kcal/mole
 Xe   -14.1861108781    -8.2630544511    11.2829010551
 Xe    -2.4698073634    13.4513096350    20.0893955905
 Xe     0.4358341520    11.6720751089    23.3640322890
 Xe     2.4162420181    14.1596297859    20.7629885422
 Xe     0.7905695711    -9.7313393067    19.5061510515
 Xe   -17.1712162139    19.9461982890   -18.0202290033
          6
Energy: -0.34119573352103955 Kcal/mole
 Xe   -21.2710618126    14.7657249985    12.4885844407
 Xe    -3.7903950584    15.5367138173    -1.5792421396
 Xe   -21.5356369879    13.7821374333    16.5073735614
 Xe   -20.7481156956    -9.8990956072     6.6403535578
 Xe     1.1281945687   -12.1927329920    19.3562387629
 Xe    -2.4250089059    22.1488065821   -15.1100060860
          6
Energy: -1.1688847810538583 Kcal/mole
 Xe   -19.3272822308    14.4586307490    20.6777132908
 Xe   -19.6410568711    14.4847769960    15.9159811766
 Xe   -16.2623968914    15.9167697890    18.2344652462
 Xe     5.1813357917    -8.8076057956    21.2997543351
 Xe     4.5199575293    21.0888685625    -9.2322852974
 Xe    18.6016230512   -21.9375884892   -11.1341859385
          6
Energy: -0.002290521055233882 Kcal/mole
 Xe   -21.9893576195    17.6922594555    13.9353844265
 Xe   -11.7080193544     6.2305571721     3.8080470064
 Xe   -16.6261010678    25.2183340915    22.5671761274
 Xe    17.6113178774    11.1340182632    13.9795103859
 Xe    -6.7472876849    19.0301328589    -4.0700935251
 Xe     7.0484261620    -5.4728366697    -4.9732929969
          6
Energy: -1.6191031214799727 Kcal/mole
 Xe   -20.1039176366     9.6323334088    12.7495597257
 Xe     2.2016595580    19.2559524572   -15.1161065242
 Xe   -16.5290272432    11.0803278802    10.6048045615
 Xe    10.5355029779    17.0161184295     4.7534056150
 Xe   -18.5763497900    13.6420427062    13.6081316203
 Xe    -0.4741773496    16.5765533395   -13.4790842889
          6
Energy: -2.8953393499558118 Kcal/mole
 Xe   -15.4676924779    12.9092039561    15.2550598425
 Xe    -0.1756390151    15.2883534825    -6.3097358045
 Xe   -18.2596731115    11.2161990073    11.8108870688
 Xe   -18.8183662885    15.1112212313    13.3335749837
 Xe   -15.1975530917    14.5209334015    10.9931924992
 Xe    -1.8356848250    16.5959669100    -2.3352684224
          6
Energy: -2.824903408323003 Kcal/mole
 Xe   -16.5231083793    17.3451671099     8.8014183977
 Xe   -13.3290041728    21.6189323062    -4.5605486361
 Xe   -17.0796671012    18.1208582417    13.0674584831
 Xe   -14.3242619963    14.5554546427    11.9848389583
 Xe   -13.1042179456    18.9867921282    10.7685950843
 Xe   -12.4780683867    25.4041579895    -2.2105496871
          6
Energy: -5.14256780036737 Kcal/mole
 Xe   -14.5389052662    18.6648345802     5.8559111258
 Xe   -11.7799016488    15.3163535458     4.7706398204
 Xe   -12.8273628257    21.4795720925     8.9354146194
 Xe   -15.9647382089    18.5993378160    10.0418190243
 Xe   -11.9418688698    16.6884643116     8.9726362740
 Xe   -10.1537020911    19.4119247706     5.7657477205
          6
Energy: -5.325166506490813 Kcal/mole
 Xe   -14.5970316426    18.6565060651     5.7885054769
 Xe   -11.7743100032    15.4000798057     4.8589272518
 Xe   -12.8291238049    21.3078784829     8.8610987554
 Xe   -16.0453790924    18.4916638983     9.9485995031
 Xe   -12.0436691998    16.9466579132     8.9824107624
 Xe   -10.2644165587    19.4232065458     5.8222442011
