          6
Energy: -3.03084795762109 Kcal/mole
 Xe     2.4358225683     5.3160644833    -1.0557833684
 Xe     2.4772993667     0.9117589843    -0.7588638280
 Xe    17.2908521479    17.0446146008     7.0302702551
 Xe     4.5981556249     2.9004843092    -4.0773952720
 Xe     0.1783817607     2.8710936481    -3.9590130422
 Xe    20.0497423001    20.2694467513     8.2542530093
