          6
Energy: -1.1949501969168714E-4 Kcal/mole
 Xe    19.3222983371     2.0988137884   -16.1105099673
 Xe   -20.8667339301   -18.1469270584   -16.1591475186
 Xe    24.8309833923     1.8199217181    19.7005868106
 Xe    17.9215432323   -18.5983031152    14.5181540762
 Xe     2.0543078011    21.5135739155    -5.9683039624
 Xe   -19.9688912845     1.2995659332    -1.6497595407
          6
Energy: -0.005473065522200244 Kcal/mole
 Xe    13.9838712384    15.3459727108   -19.1339121548
 Xe   -13.9791258372    -8.5418087611    -4.5481987552
 Xe    11.3486183155     7.2135836760     3.9662200537
 Xe     8.7693932112   -24.0836360265    10.3208285228
 Xe    20.5541736605    26.0741339681   -15.4652329760
 Xe    10.8165651835    17.2579065417     7.8238767481
          6
Energy: -0.013798886962332607 Kcal/mole
 Xe    23.5688118365    11.1834316361    24.7931050827
 Xe    -8.2021894903    -9.9694114696    -1.1345160766
 Xe     0.5967403513   -11.4059595451    -2.6569157654
 Xe   -16.2612872719   -24.8400925335    21.8169639129
 Xe   -23.7005248182    10.0527214268     0.6666566458
 Xe    11.1606062193    -6.4028372257    -6.0184280549
          6
Energy: -0.08613310997171883 Kcal/mole
 Xe    -0.0384277931    25.6994846207     3.5995334920
 Xe    22.1653146136   -23.5442413380    -5.2102965675
 Xe    -1.7558528174    -5.2423993969    12.3177401497
 Xe    -2.3063553687   -13.9634938794   -16.3408988148
 Xe   -21.1170473324    19.8237606501    12.0157945368
 Xe    18.2521362606   -24.9195931108   -10.1267107795
          6
Energy: -2.5843183323604553E-4 Kcal/mole
 Xe    -5.3527554265   -19.9821432429    22.0243698306
 Xe    14.6327781739   -19.4946882600   -17.6361272226
 Xe    26.1613681913     7.7848089658     8.7706318381
 Xe    -8.2537794656   -19.3617595331    -6.6943781931
 Xe     4.3963391049    -5.7696992291    16.0341965708
 Xe    18.9271895981    17.2125036152   -17.8340538141
          6
Energy: -0.3701381189346498 Kcal/mole
 Xe   -21.3106198502     5.3141292065    24.5077715116
 Xe    19.9491058516    -3.4316097588   -18.8736014562
 Xe   -17.7345735867     8.4627192136    24.9488399521
 Xe   -19.8452344073    18.2934958208   -13.7618396863
 Xe   -19.0763226131     0.3700772711    -3.8469589377
 Xe    21.9064857422    14.4066776587     2.9049963225
          6
Energy: -0.6255086291338154 Kcal/mole
 Xe    -3.7504103756     0.1877228581   -24.8928755260
 Xe   -14.2609975045     5.7917817118     8.4255296963
 Xe   -10.1133042373     6.5833240288     4.8569121278
 Xe    10.0702689459   -10.2053904892   -20.7572972198
 Xe   -16.7669954611     9.2182227653    10.1441947125
 Xe     7.4098153881    19.4259774416    23.2784159622
          6
Energy: -2.7775331992205575E-4 Kcal/mole
 Xe     9.9030683186     3.9430101638   -18.1637921330
 Xe     0.6258330064   -15.6718536808    22.6783561179
 Xe    21.5919459354    11.0319779282     2.4317803253
 Xe    26.0799423908    -0.8072784255   -25.1040860379
 Xe   -24.1647399171   -11.6255912894    -9.3702658980
 Xe     2.5767674642    23.5437792390     1.7292680357
          6
Energy: -1.7039964418960294 Kcal/mole
 Xe     2.4693696132     6.2688939078    -2.3096255901
 Xe     5.8353391005   -15.5168421432    15.3039379009
 Xe    20.3906738643    16.0530700307     6.4646035115
 Xe     4.9181133972     3.3472944312    -4.3307604271
 Xe     0.3457114330     2.9501725219    -4.3262780842
 Xe    20.4489303107    20.0218792586     8.3900211908
          6
Energy: -3.03084795762109 Kcal/mole
 Xe     2.4358225683     5.3160644833    -1.0557833684
 Xe     2.4772993667     0.9117589843    -0.7588638280
 Xe    17.2908521479    17.0446146008     7.0302702551
 Xe     4.5981556249     2.9004843092    -4.0773952720
 Xe     0.1783817607     2.8710936481    -3.9590130422
 Xe    20.0497423001    20.2694467513     8.2542530093
