          6
Energy: -17.580371822145707 Kcal/mole
 H     -4.8695661234    -7.3686954142     0.6578100172
 F     -4.0333164388    -7.0707844962     0.4279740977
 H     -6.4735379360    -6.1413413163     0.5216477816
 F     -6.5887150056    -7.0020613008     0.8162396196
 H     -4.6354572727    -5.4653260177     0.0096652942
 F     -5.3565335773    -4.9025249604    -0.0550875652
