          6
Energy: -17.579879087518464 Kcal/mole
 H     -4.6369366056    -5.0132217897    -1.5884195149
 F     -5.0428091193    -5.8146886848    -1.4045518485
 H     -4.3139264311    -4.4424473340    -3.5063510939
 F     -4.0500111913    -3.8908381790    -2.8230026569
 H     -5.2096000209    -6.2117203431    -3.1180323126
 F     -5.0662313874    -5.9589996177    -3.9877832367
