          6
Energy: -17.580269840470635 Kcal/mole
 H     -4.8552742223    -7.4347273392     0.1551693291
 F     -4.0300530230    -7.1046743137    -0.0705826865
 H     -6.4239026798    -6.1871156727     0.4307278756
 F     -6.5430842734    -7.0905330571     0.5333035906
 H     -4.6093636489    -5.4399618197    -0.0673303639
 F     -5.3138312690    -4.8658641091     0.0552510002
