          6
Energy: -17.551717762954468 Kcal/mole
 H     -5.7290187263    -6.6131520884     1.5660617503
 F     -4.8585823676    -6.3337244549     1.6378234615
 H     -6.7597229960    -6.2643719276    -0.1444142451
 F     -7.1709923780    -6.6980079499     0.5510757230
 H     -4.8411426680    -5.6775338343     0.0463113424
 F     -5.2680108209    -5.5175873704    -0.7493580040
          6
Energy: -17.562178337143393 Kcal/mole
 H     -5.7917085462    -6.4340204875     1.5730871147
 F     -4.9049293426    -6.2378073279     1.6996258046
 H     -6.6589293084    -6.0314444053    -0.2169093488
 F     -7.1677796544    -6.3798981408     0.4617218615
 H     -4.6900059852    -5.6279754562     0.0378346412
 F     -5.0846695337    -5.4784833616    -0.7762794768
          6
Energy: -17.5622098732361 Kcal/mole
 H     -5.7709652606    -6.6316284073     1.4090240214
 F     -4.8835466877    -6.4662877426     1.5703923613
 H     -6.6543067707    -6.0651592734    -0.3433690316
 F     -7.1352552699    -6.4979814307     0.3064328777
 H     -4.6799072991    -5.6674884860    -0.0047913758
 F     -5.0593142266    -5.4185966263    -0.8016553701
          6
Energy: -17.57508746843598 Kcal/mole
 H     -5.6962726960    -6.4546745263     1.4282309707
 F     -4.8041451521    -6.3008388383     1.5742858460
 H     -6.5100945293    -6.1097635253    -0.3896347887
 F     -7.0392864827    -6.4116186965     0.2957325085
 H     -4.5322209360    -5.7868740184    -0.1005338792
 F     -4.8929229131    -5.6372376143    -0.9302278169
          6
Energy: -17.54363074475532 Kcal/mole
 H     -5.5724230997    -6.5146309191     1.5073363320
 F     -4.7344643280    -6.1725740845     1.6546836048
 H     -6.4620704702    -6.2249760063    -0.3020846447
 F     -6.8997957603    -6.6801960280     0.3627915109
 H     -4.6055624619    -5.4507494690     0.0233561996
 F     -5.0037754579    -5.3244817373    -0.7929598359
          6
Energy: -17.572891404762004 Kcal/mole
 H     -5.5151690110    -6.5304679765     1.4249424956
 F     -4.7112492003    -6.1236833309     1.5956123234
 H     -6.2849107551    -6.5598567177    -0.4252104714
 F     -6.7529715160    -6.9561782885     0.2565059921
 H     -4.5128818161    -5.6581608918    -0.0847924382
 F     -4.8606974620    -5.6631119567    -0.9332550263
          6
Energy: -17.56708192626229 Kcal/mole
 H     -5.2425845312    -6.8421006404     1.2805752487
 F     -4.4057137371    -6.4844299471     1.3928603732
 H     -6.3007801193    -6.4904854192    -0.4161489569
 F     -6.6741856641    -7.0084106156     0.2420385469
 H     -4.4614924875    -5.6731900531    -0.1666740680
 F     -4.9248154649    -5.4931807772    -0.9372696035
          6
Energy: -17.548071533332518 Kcal/mole
 H     -5.3075752708    -6.9762539514     1.1133196353
 F     -4.4477642495    -6.6890126484     1.2515456875
 H     -6.3388906071    -6.3838786821    -0.5319936767
 F     -6.7718266729    -6.9065480500     0.0846683821
 H     -4.4243076383    -5.7913185806    -0.2535821982
 F     -4.8689086571    -5.5427671996    -1.0161050799
          6
Energy: -17.560026746859535 Kcal/mole
 H     -5.2605034345    -7.0385377332     1.0994027610
 F     -4.3848259191    -6.7828086157     1.1925720016
 H     -6.3882317107    -6.2702675078    -0.3866364592
 F     -6.7588588413    -6.8764436021     0.1930833634
 H     -4.4770736596    -5.6814116602    -0.1945977545
 F     -5.0057613907    -5.3179993768    -0.8498151194
          6
Energy: -17.56283432945395 Kcal/mole
 H     -5.3253701251    -6.7588519413     1.2098923808
 F     -4.4862357115    -6.4259096043     1.3708017841
 H     -6.3058698884    -6.3743582435    -0.4889473295
 F     -6.7114544375    -6.8949430184     0.1477485679
 H     -4.4368680433    -5.6284957559    -0.1891192429
 F     -4.8812392506    -5.4424194814    -0.9693748742
          6
Energy: -17.559366384371174 Kcal/mole
 H     -5.2201734609    -7.0045285059     1.0333345376
 F     -4.4229319762    -6.6156571403     1.2658728703
 H     -6.2211070887    -6.4597574249    -0.6450479629
 F     -6.5513988421    -7.1297071622    -0.1131046321
 H     -4.4690572532    -5.5546373155    -0.1107754170
 F     -4.9022968304    -5.2754574704    -0.8692285025
          6
Energy: -17.572748261305378 Kcal/mole
 H     -5.2416951248    -7.1124088653     0.9554510718
 F     -4.4759267978    -6.6921844444     1.2345555425
 H     -6.2520953247    -6.4186342082    -0.6688516672
 F     -6.5837756301    -7.1376643208    -0.2063877527
 H     -4.5603134969    -5.4870217738    -0.0601860867
 F     -5.0047507792    -5.1787547488    -0.8006831788
          6
Energy: -17.56389598701469 Kcal/mole
 H     -5.3965498915    -7.0116773235     1.0194874409
 F     -4.6174171286    -6.6110483778     1.2902965723
 H     -6.3480958704    -6.4220373913    -0.6376796336
 F     -6.6864342301    -7.1127612442    -0.1383633879
 H     -4.6391962988    -5.4766586304    -0.0711261937
 F     -5.0682460332    -5.2061231875    -0.8350737702
          6
Energy: -17.55622978406734 Kcal/mole
 H     -5.4325651856    -7.2010853888     0.9276936103
 F     -4.5932483234    -6.8891525462     1.1255170330
 H     -6.5158450681    -6.3876357054    -0.5351185677
 F     -6.8666175773    -7.0849252317    -0.0538338668
 H     -4.6955803656    -5.6247873081    -0.1042643429
 F     -5.1981533190    -5.2363383923    -0.7656393245
          6
Energy: -17.544456444503396 Kcal/mole
 H     -5.4830326853    -7.3177714352     0.8667733116
 F     -4.6563199322    -7.0352279997     1.1453486710
 H     -6.3606880972    -6.6019172004    -0.8369998753
 F     -6.7816786259    -7.2315577472    -0.3200774860
 H     -4.5219731566    -5.9270835006    -0.2367712624
 F     -4.8832982511    -5.5813202082    -1.0053940059
          6
Energy: -17.560919659192166 Kcal/mole
 H     -5.5740028853    -7.1449139967     0.9287271432
 F     -4.7779376079    -6.7969334773     1.2221187455
 H     -6.2675109759    -6.7055284970    -0.8822645430
 F     -6.7654942148    -7.2628499056    -0.3509505669
 H     -4.5105304156    -5.9242120955    -0.2924460477
 F     -4.8430059783    -5.7303228844    -1.1247656823
          6
Energy: -17.559221217198058 Kcal/mole
 H     -5.5513788891    -7.0923457619     1.0202352960
 F     -4.7460138529    -6.7260352712     1.2612597406
 H     -6.4422030039    -6.5324766721    -0.7380005521
 F     -6.8597302397    -7.1532409262    -0.2077065316
 H     -4.6796023151    -5.7252484523    -0.1893288990
 F     -5.0832129597    -5.4627460142    -0.9697646219
          6
Energy: -17.560152554412298 Kcal/mole
 H     -5.5987645420    -7.0993423415     0.9902564282
 F     -4.8340889465    -6.6590413975     1.2398467171
 H     -6.5187131496    -6.5871145842    -0.7758057277
 F     -6.8795932516    -7.2607956249    -0.2690430540
 H     -4.8384588632    -5.6485638160    -0.1900620466
 F     -5.2330965023    -5.4055231261    -0.9813150762
          6
Energy: -17.55394887010135 Kcal/mole
 H     -5.4805667223    -7.1954108518     0.9071376976
 F     -4.8282025451    -6.6546305209     1.2576610407
 H     -6.4241271366    -6.6525095961    -0.7998263583
 F     -6.6880307771    -7.4118390102    -0.3586203866
 H     -4.9308343299    -5.4912950312    -0.0748508387
 F     -5.3340730793    -5.2560711574    -0.8641272416
          6
Energy: -17.560152322738645 Kcal/mole
 H     -5.2190845588    -7.3448055765     0.6376009428
 F     -4.4397245855    -6.9171921637     0.8626205001
 H     -6.4322928645    -6.5691413608    -0.7607163427
 F     -6.6732142477    -7.3488158450    -0.3424418087
 H     -4.7533314144    -5.5909820939    -0.2634046772
 F     -5.2943633257    -5.2511585955    -0.9211990683
          6
Energy: -17.569670766648642 Kcal/mole
 H     -5.1920185651    -7.3091498652     0.6204077502
 F     -4.3913730264    -6.9111300334     0.8239659355
 H     -6.4849947759    -6.4798097853    -0.7055411425
 F     -6.7011129288    -7.2681770410    -0.2900185629
 H     -4.7132690653    -5.5792812825    -0.3033217850
 F     -5.2900617573    -5.2037215178    -0.9092541687
          6
Energy: -17.551245535319765 Kcal/mole
 H     -5.2278429825    -7.4380066033     0.5991606534
 F     -4.3860671554    -7.0998212201     0.7330751915
 H     -6.4718750078    -6.6174510240    -0.7690981697
 F     -6.7458494108    -7.3421345540    -0.2785262506
 H     -4.6042317826    -5.8635413986    -0.5141339076
 F     -5.1845811271    -5.4767474505    -1.1095111662
          6
Energy: -17.56323566645358 Kcal/mole
 H     -5.2251897918    -7.4573714368     0.6067100705
 F     -4.3914571227    -7.0975368048     0.7343731974
 H     -6.4846812587    -6.6665569723    -0.7943453390
 F     -6.7715941185    -7.3698813720    -0.2806286859
 H     -4.6142465976    -5.8759490791    -0.5166391432
 F     -5.1696485282    -5.5158169433    -1.1512433823
          6
Energy: -17.551742797260147 Kcal/mole
 H     -5.1956284918    -7.4834856945     0.5967353433
 F     -4.4126720138    -7.0682815099     0.8322637678
 H     -6.4483055979    -6.6233859498    -0.7237545152
 F     -6.6709450453    -7.4403830483    -0.3718505261
 H     -4.7555460617    -5.6633337829    -0.2446207023
 F     -5.3532317011    -5.2822811726    -0.8263936689
          6
Energy: -17.551017755353087 Kcal/mole
 H     -5.2354767189    -7.3735104073     0.6971878798
 F     -4.4557881507    -6.9391779770     0.9077349686
 H     -6.3793150775    -6.6166846706    -0.8320289022
 F     -6.6565961466    -7.3812556998    -0.4084308026
 H     -4.6901483294    -5.6817704118    -0.3179228342
 F     -5.2175398088    -5.3363906386    -0.9838507880
          6
Energy: -17.56223196639337 Kcal/mole
 H     -5.2736240329    -7.3475588615     0.6577243021
 F     -4.5014926233    -6.9222109087     0.9102737138
 H     -6.5268547333    -6.5204221605    -0.7040713678
 F     -6.7395148473    -7.3276201058    -0.3244713769
 H     -4.7934722631    -5.5419597674    -0.2041482253
 F     -5.3671303234    -5.1827437434    -0.8228317291
          6
Energy: -17.563076631496756 Kcal/mole
 H     -5.3576999345    -7.2699755761     0.7723026061
 F     -4.5988528777    -6.8269673030     1.0345692917
 H     -6.4724509798    -6.4911018502    -0.7398159035
 F     -6.7345359736    -7.2760286300    -0.3447331194
 H     -4.7867043994    -5.5384556392    -0.1504605566
 F     -5.2882381125    -5.1890700669    -0.8340413173
          6
Energy: -17.56299758403543 Kcal/mole
 H     -5.2661829609    -7.3065235407     0.7442272604
 F     -4.5028269722    -6.8616201296     0.9896607324
 H     -6.4784527421    -6.4735208787    -0.6682738325
 F     -6.7048111591    -7.2806104316    -0.2964441394
 H     -4.8226296040    -5.5243382664    -0.0987886336
 F     -5.3595073155    -5.1325775236    -0.7305914852
          6
Energy: -17.55663952932082 Kcal/mole
 H     -5.2676089913    -7.3188215466     0.7692305584
 F     -4.4880156153    -6.9029494736     1.0145336098
 H     -6.5613666007    -6.4161794173    -0.5239092559
 F     -6.7691883030    -7.2365691760    -0.1708373311
 H     -4.8281800602    -5.4969134941     0.0062033543
 F     -5.3724420971    -5.0836973041    -0.6052868055
          6
Energy: -17.561038245258942 Kcal/mole
 H     -5.2894619481    -7.2562153764     0.8205896532
 F     -4.4695783670    -6.8963579979     1.0185355564
 H     -6.5589411404    -6.2669888933    -0.3917331661
 F     -6.8101631126    -7.0851990141    -0.0626302659
 H     -4.7690399826    -5.4716094330     0.0623420904
 F     -5.3503177529    -5.0038115104    -0.4707341305
          6
Energy: -17.56239970504612 Kcal/mole
 H     -5.2988718899    -7.2725495365     0.8173833864
 F     -4.4663916244    -6.9446992323     1.0183306070
 H     -6.5732310384    -6.2270406855    -0.3358779381
 F     -6.8195702981    -7.0517518857    -0.0195594192
 H     -4.7578308596    -5.4618515095     0.1328766394
 F     -5.3421053731    -4.9663553383    -0.3711033574
          6
Energy: -17.559687831804695 Kcal/mole
 H     -5.2374259205    -7.3656403156     0.6755166401
 F     -4.3779454406    -7.0694913382     0.7958415657
 H     -6.5991508408    -6.1597149898    -0.1842518844
 F     -6.8491152778    -7.0070839759     0.0614564420
 H     -4.7386775950    -5.4586484065     0.0942764217
 F     -5.3719425270    -4.9223610779    -0.2959291999
          6
Energy: -17.57429110033422 Kcal/mole
 H     -5.1747815662    -7.4202476020     0.5372472776
 F     -4.3423819463    -7.0924096361     0.7385483977
 H     -6.5134304506    -6.2782703282    -0.4775162173
 F     -6.7485777240    -7.1257222630    -0.2178626442
 H     -4.6749924616    -5.5334668012    -0.0370748780
 F     -5.2849971924    -5.0182515908    -0.4880033817
          6
Energy: -17.57405510462081 Kcal/mole
 H     -5.1151224683    -7.4577336714     0.3866255031
 F     -4.2970248807    -7.1078061008     0.6083371007
 H     -6.5525252320    -6.2576725754    -0.3865552172
 F     -6.7259642412    -7.1504507456    -0.2692732962
 H     -4.7529843218    -5.4915204028     0.0963016357
 F     -5.3882274398    -4.9321957398    -0.2565596719
          6
Energy: -17.55986479447222 Kcal/mole
 H     -5.0770631893    -7.3788323625     0.3296588421
 F     -4.2287825212    -7.0451429976     0.4294602237
 H     -6.5842276952    -6.2353399999    -0.4039816192
 F     -6.7579984857    -7.0994837107    -0.1511014905
 H     -4.7224993881    -5.4530952767    -0.1707417803
 F     -5.3967381070    -4.9202617048    -0.4907098016
          6
Energy: -17.569704575645915 Kcal/mole
 H     -4.9985093086    -7.3776360819     0.2133403054
 F     -4.1707173521    -7.0085455511     0.3527019099
 H     -6.5276872040    -6.2334646690    -0.4098715970
 F     -6.6599721685    -7.1303752090    -0.2722446692
 H     -4.7148303130    -5.3860931399    -0.1096890245
 F     -5.4191093181    -4.8693762498    -0.3887656060
          6
Energy: -17.562397207691447 Kcal/mole
 H     -4.9830621464    -7.3432095105     0.2275833231
 F     -4.1452668068    -6.9730699872     0.2721333207
 H     -6.5732403460    -6.2287491194    -0.4040187113
 F     -6.6919142713    -7.1046983095    -0.1600545421
 H     -4.7238107253    -5.3808654590    -0.2623301870
 F     -5.4262132779    -4.8704505955    -0.5572815751
          6
Energy: -17.572953205067165 Kcal/mole
 H     -4.9460792286    -7.4033740524     0.0543728328
 F     -4.1033505377    -7.0431610002     0.0236497033
 H     -6.5703512282    -6.2058311452    -0.2644243583
 F     -6.6913899000    -7.0994013580    -0.0977782820
 H     -4.7085230065    -5.4177042537    -0.3324316388
 F     -5.4365207487    -4.8802014881    -0.4807524548
          6
Energy: -17.565051071085975 Kcal/mole
 H     -4.9473483298    -7.4102665866     0.0475851512
 F     -4.0976636949    -7.0654275838     0.0442559724
 H     -6.5489990183    -6.2365743718    -0.2489547008
 F     -6.6743532225    -7.1329285757    -0.1015624869
 H     -4.7015329206    -5.4387831084    -0.2886042015
 F     -5.4359000808    -4.9104612243    -0.4385037036
          6
Energy: -17.563692648190454 Kcal/mole
 H     -4.9410764490    -7.3863989367     0.1666169261
 F     -4.0881127638    -7.0622619493     0.0756379991
 H     -6.5597906721    -6.2022272867    -0.1447170465
 F     -6.6877019243    -7.0819392933     0.0803040569
 H     -4.6895306512    -5.4728102117    -0.3635763541
 F     -5.4100930666    -4.9218560785    -0.4982179103
          6
Energy: -17.571801631145433 Kcal/mole
 H     -4.9287515329    -7.4738685892    -0.0719582305
 F     -4.0877824626    -7.1481579050    -0.2380081417
 H     -6.5432559537    -6.2392964330    -0.0251001069
 F     -6.6426984777    -7.1387191788     0.1233549668
 H     -4.6798704991    -5.4981177067    -0.3955792759
 F     -5.3954288432    -4.9252699202    -0.3689208875
          6
Energy: -17.56233867168214 Kcal/mole
 H     -4.8838436131    -7.4897026754    -0.0713130631
 F     -4.0586956028    -7.1443550479    -0.2731911878
 H     -6.5072350754    -6.2735659589    -0.0074655056
 F     -6.6184246274    -7.1679001591     0.1619222801
 H     -4.6973326519    -5.5092230847    -0.4904077963
 F     -5.4246427309    -4.9536661509    -0.4332628720
          6
Energy: -17.57809193688371 Kcal/mole
 H     -4.8733248424    -7.4530419353    -0.0603089148
 F     -4.0498954874    -7.1003261627    -0.2563820668
 H     -6.5143304373    -6.2804312768    -0.0020304397
 F     -6.5909167208    -7.1787182048     0.1656124436
 H     -4.7078326814    -5.4709893617    -0.4362222127
 F     -5.4500372165    -4.9329570276    -0.4129276758
          6
Energy: -17.565389238000648 Kcal/mole
 H     -4.8961276406    -7.4730653962    -0.0542634389
 F     -4.0663695853    -7.1335500060    -0.2469286133
 H     -6.5125668094    -6.2629684007     0.0915462930
 F     -6.6082327603    -7.1628752794     0.2395484401
 H     -4.7097240955    -5.4700410994    -0.3824890215
 F     -5.4499756816    -4.9305021157    -0.3398947210
          6
Energy: -17.576021506734207 Kcal/mole
 H     -4.8490736897    -7.4279672252     0.0180182447
 F     -4.0426248148    -7.0719631409    -0.2345491800
 H     -6.4760154265    -6.2275068053     0.2339055663
 F     -6.5501332041    -7.1274078438     0.3938232824
 H     -4.6985350897    -5.4387430107    -0.3412934433
 F     -5.4214206603    -4.8843987248    -0.2362798034
          6
Energy: -17.57269065830502 Kcal/mole
 H     -4.8419816304    -7.4075979892     0.0189770386
 F     -4.0511259589    -7.0462679263    -0.2723593521
 H     -6.4750471001    -6.2243492094     0.2435846489
 F     -6.5331145210    -7.1193392147     0.4346607204
 H     -4.7195484142    -5.4270211432    -0.3729729382
 F     -5.4519275857    -4.8816898370    -0.2885720164
          6
Energy: -17.572583452999595 Kcal/mole
 H     -4.8278057762    -7.3775547118     0.1706915568
 F     -4.0153554572    -7.0403367649    -0.0883403630
 H     -6.4589092523    -6.2206219580     0.2228857519
 F     -6.5336223321    -7.1038580923     0.4578344414
 H     -4.6970644975    -5.4372064727    -0.3673694425
 F     -5.4422620674    -4.9032043462    -0.3470886442
          6
Energy: -17.563409081217173 Kcal/mole
 H     -4.8527407408    -7.4068785081     0.1037388950
 F     -4.0435388263    -7.0716618832    -0.1677589427
 H     -6.4623658718    -6.2315086498     0.2392200181
 F     -6.5403013398    -7.1148465844     0.4727348059
 H     -4.7042769673    -5.4590087785    -0.3820446234
 F     -5.4341551580    -4.9076661004    -0.3173292625
          6
Energy: -17.566572844045083 Kcal/mole
 H     -4.8711622177    -7.4470122863     0.0630498241
 F     -4.0726641186    -7.0864525042    -0.2076648399
 H     -6.4458505190    -6.2240599042     0.3830727420
 F     -6.5495222144    -7.1274997454     0.5011304941
 H     -4.6987905087    -5.4276421448    -0.2262758596
 F     -5.4170357798    -4.8785526959    -0.0729347116
          6
Energy: -17.572631977073172 Kcal/mole
 H     -4.8515362085    -7.4136648361     0.1715468482
 F     -4.0517920306    -7.0623583753    -0.1075266555
 H     -6.4607623757    -6.2012763736     0.4087224160
 F     -6.5552655688    -7.0978971829     0.5761418618
 H     -4.7064699380    -5.4322544958    -0.2264395142
 F     -5.4317193453    -4.8813123514    -0.1198325221
          6
Energy: -17.56398432496644 Kcal/mole
 H     -4.8344268033    -7.3699833829     0.2472763369
 F     -4.0239140395    -7.0470311956    -0.0349645964
 H     -6.3958818778    -6.1560331980     0.5121225645
 F     -6.4970649826    -7.0503365485     0.6878282747
 H     -4.6344671628    -5.3728632297    -0.1147080927
 F     -5.3640218999    -4.8274028113    -0.0092954861
          6
Energy: -17.572064877151377 Kcal/mole
 H     -4.8113431965    -7.3661821462     0.2844832847
 F     -4.0024627398    -7.0361275028     0.0057982670
 H     -6.3858290046    -6.1353125158     0.5539070997
 F     -6.4784784364    -7.0303767615     0.7304434383
 H     -4.6215348560    -5.3759764327    -0.0570431767
 F     -5.3400529987    -4.8152158511     0.0437945571
          6
Energy: -17.574555292269622 Kcal/mole
 H     -4.7979824802    -7.3585675508     0.2949120056
 F     -3.9860757099    -7.0225856100     0.0325905772
 H     -6.3821938261    -6.1286116652     0.5969541806
 F     -6.4760323201    -7.0283355243     0.7472216569
 H     -4.5994000669    -5.3773868533    -0.0040250207
 F     -5.3096894946    -4.8087589342     0.1101687556
          6
Energy: -17.572862961649605 Kcal/mole
 H     -4.7973169252    -7.3689083437     0.2878624135
 F     -3.9947331133    -7.0353654823    -0.0045369443
 H     -6.3725056625    -6.1419901329     0.5494295057
 F     -6.4697339599    -7.0360172386     0.7287370417
 H     -4.6257020463    -5.3990457900    -0.1033370828
 F     -5.3381884730    -4.8358094695     0.0232209633
          6
Energy: -17.578491561925375 Kcal/mole
 H     -4.7918340396    -7.3690958113     0.2869321135
 F     -3.9885640786    -7.0361023812    -0.0042065912
 H     -6.3724315034    -6.1396479297     0.5615989353
 F     -6.4697378939    -7.0361414871     0.7280914816
 H     -4.6092194279    -5.3817058529    -0.0896792399
 F     -5.3265046195    -4.8237101902     0.0329249774
          6
Energy: -17.56809751006233 Kcal/mole
 H     -4.7816664014    -7.3620650518     0.3297633335
 F     -3.9794481374    -7.0389774025     0.0248875756
 H     -6.3789438527    -6.1612253672     0.5383951027
 F     -6.4660490373    -7.0499039400     0.7470864564
 H     -4.6098986785    -5.4075498207    -0.1081122967
 F     -5.3280623928    -4.8464296732    -0.0067512611
          6
Energy: -17.569493828420605 Kcal/mole
 H     -4.8225472711    -7.3828381528     0.2080043672
 F     -4.0193706405    -7.0726042994    -0.1075130748
 H     -6.3612763695    -6.1331808695     0.5956868822
 F     -6.4669834071    -7.0334743822     0.7342026328
 H     -4.5996244194    -5.4082082406    -0.1226091755
 F     -5.2814548171    -4.8260157688     0.0698700042
          6
Energy: -17.567415022726493 Kcal/mole
 H     -4.8175576554    -7.3966815380     0.1988757479
 F     -4.0166290237    -7.0719622131    -0.1076526959
 H     -6.3752650914    -6.1512857276     0.5743186933
 F     -6.4838477505    -7.0538505092     0.6946333687
 H     -4.6100132061    -5.4048572021    -0.1196929600
 F     -5.3116685313    -4.8371109690     0.0422731457
          6
Energy: -17.57501547025646 Kcal/mole
 H     -4.8142921173    -7.4090875790     0.2015706250
 F     -4.0181836771    -7.0670513750    -0.0986152951
 H     -6.3790059608    -6.1533548045     0.5568382102
 F     -6.4836493061    -7.0537407495     0.6955606679
 H     -4.6312750285    -5.4104781799    -0.1223452059
 F     -5.3276850439    -4.8367759053     0.0412634444
          6
Energy: -17.57211569418348 Kcal/mole
 H     -4.8155279693    -7.3995914314     0.2088622394
 F     -4.0137363339    -7.0722633804    -0.0925934298
 H     -6.3850037539    -6.1566132129     0.5334228206
 F     -6.4833311370    -7.0535678985     0.6968028002
 H     -4.6148963048    -5.3944315203    -0.1063848716
 F     -5.3285538973    -4.8376271435     0.0404167856
          6
Energy: -17.571834432968217 Kcal/mole
 H     -4.8183213120    -7.4184852198     0.1749288404
 F     -4.0170907851    -7.0761390761    -0.1109343447
 H     -6.4045472873    -6.1740238381     0.5069640837
 F     -6.4951992284    -7.0767955253     0.6399095858
 H     -4.6307756635    -5.4037418362    -0.1219443260
 F     -5.3389895695    -4.8418594144     0.0317118073
          6
Energy: -17.57624653477643 Kcal/mole
 H     -4.8155472099    -7.4124667925     0.1965362793
 F     -4.0093122465    -7.0797730096    -0.0866403980
 H     -6.3906555692    -6.1699969716     0.4994764347
 F     -6.4929407293    -7.0705120317     0.6391165887
 H     -4.6206895535    -5.4320705535    -0.1130635962
 F     -5.3245091513    -4.8591816203     0.0185617965
          6
Energy: -17.57628970002162 Kcal/mole
 H     -4.8087493167    -7.4254532166     0.1942291402
 F     -4.0023757764    -7.0828741592    -0.0764926782
 H     -6.3974978527    -6.1870197962     0.4838841301
 F     -6.4898291135    -7.0880921155     0.6268268241
 H     -4.6089037261    -5.4342921902    -0.1178623399
 F     -5.3146504179    -4.8632279618     0.0113516454
          6
Energy: -17.57774997451537 Kcal/mole
 H     -4.8379229725    -7.4211351417     0.1860893047
 F     -4.0178576926    -7.0948833475    -0.0627915975
 H     -6.4181039029    -6.1756495681     0.4206636275
 F     -6.5281506284    -7.0759139776     0.5559511404
 H     -4.6077832178    -5.4368969400    -0.0987018101
 F     -5.3147098583    -4.8630897858     0.0103352236
          6
Energy: -17.576437378354115 Kcal/mole
 H     -4.8377507096    -7.4234942352     0.1835388378
 F     -4.0178668308    -7.0947582031    -0.0626563011
 H     -6.4120753814    -6.1740001759     0.4378439805
 F     -6.5284704275    -7.0760014741     0.5550397624
 H     -4.6079251650    -5.4217261965    -0.0869158492
 F     -5.3196306856    -4.8545905916     0.0258735901
          6
Energy: -17.577666584150847 Kcal/mole
 H     -4.8377805953    -7.4304960092     0.1737816259
 F     -4.0178652454    -7.0943867751    -0.0621387035
 H     -6.4185275421    -6.1765637698     0.4328055646
 F     -6.5327647992    -7.0767541312     0.5650786247
 H     -4.6124452693    -5.4362172187    -0.0992408588
 F     -5.3162540243    -4.8596038784     0.0150364011
          6
Energy: -17.57865525967486 Kcal/mole
 H     -4.8482438005    -7.4272399376     0.1859339338
 F     -4.0270093967    -7.1009865665    -0.0590595188
 H     -6.4153864152    -6.1763357967     0.4371857242
 F     -6.5329314287    -7.0767662246     0.5648462674
 H     -4.6130024793    -5.4377015125    -0.0950923583
 F     -5.3162244656    -4.8595251401     0.0148163327
          6
Energy: -17.57931219627676 Kcal/mole
 H     -4.8521840781    -7.4226523553     0.1786421955
 F     -4.0268003741    -7.1012299271    -0.0586727090
 H     -6.4169841516    -6.1761696004     0.4368978091
 F     -6.5328466725    -7.0767750410     0.5648615406
 H     -4.6080579572    -5.4316491191    -0.0950021918
 F     -5.3164867611    -4.8598462055     0.0148115496
          6
Energy: -17.57786685831809 Kcal/mole
 H     -4.8512753354    -7.4273978676     0.1752988307
 F     -4.0268485808    -7.1009781887    -0.0584953512
 H     -6.4169266357    -6.1818819728     0.4266358818
 F     -6.5341020286    -7.0824725189     0.5535043001
 H     -4.6155365369    -5.4426808454    -0.0898972241
 F     -5.3199898939    -4.8671566889     0.0258888424
          6
Energy: -17.575096027902646 Kcal/mole
 H     -4.8533013318    -7.4257052216     0.1704491551
 F     -4.0267411064    -7.1010679796    -0.0582380871
 H     -6.4239144451    -6.1773164489     0.4193821405
 F     -6.5452681029    -7.0790591888     0.5334975241
 H     -4.6060774256    -5.4310688590    -0.0890420677
 F     -5.3204916779    -4.8677726780     0.0258434783
          6
Energy: -17.579271135359477 Kcal/mole
 H     -4.8532631302    -7.4305473648     0.1635498970
 F     -4.0267431329    -7.1008111151    -0.0578720974
 H     -6.4284670589    -6.1864084980     0.4317679483
 F     -6.5428421436    -7.0905705711     0.5332484172
 H     -4.6088292816    -5.4411532506    -0.0583236785
 F     -5.3138596159    -4.8658009064     0.0547732164
          6
Energy: -17.57871646958489 Kcal/mole
 H     -4.8515682900    -7.4358771004     0.1618582705
 F     -4.0268330402    -7.1005283850    -0.0577823605
 H     -6.4217325704    -6.1882956552     0.4231805261
 F     -6.5431993927    -7.0904704618     0.5337039601
 H     -4.6060541160    -5.4378657384    -0.0576598614
 F     -5.3140068321    -4.8659753013     0.0547380024
          6
Energy: -17.580009824854358 Kcal/mole
 H     -4.8547607412    -7.4371427815     0.1534941421
 F     -4.0300802620    -7.1045461800    -0.0704938217
 H     -6.4240299945    -6.1873082799     0.4289010009
 F     -6.5430775196    -7.0905228397     0.5334005021
 H     -4.6093029753    -5.4404339331    -0.0647408035
 F     -5.3138344876    -4.8658390645     0.0551136301
          6
Energy: -17.57996583995009 Kcal/mole
 H     -4.8558634592    -7.4347643151     0.1529490437
 F     -4.0300217653    -7.1046723522    -0.0704649055
 H     -6.4241290886    -6.1873682222     0.4282720761
 F     -6.5430722629    -7.0905196599     0.5334338651
 H     -4.6090307636    -5.4402943827    -0.0638054460
 F     -5.3138489278    -4.8658464674     0.0550640115
          6
Energy: -17.580269840470635 Kcal/mole
 H     -4.8552742223    -7.4347273392     0.1551693291
 F     -4.0300530230    -7.1046743137    -0.0705826865
 H     -6.4239026798    -6.1871156727     0.4307278756
 F     -6.5430842734    -7.0905330571     0.5333035906
 H     -4.6093636489    -5.4399618197    -0.0673303639
 F     -5.3138312690    -4.8658641091     0.0552510002
