          6
Energy: -17.580262209757677 Kcal/mole
 H     -4.8670211829    -7.3852466175     0.6219348619
 F     -4.0314826759    -7.0883802517     0.3881940561
 H     -6.4683690630    -6.1528628374     0.4982731281
 F     -6.5845552226    -7.0140662627     0.7910502391
 H     -4.6337449455    -5.4787189412    -0.0219706925
 F     -5.3547950501    -4.9151938576    -0.0804106339
