          6
Energy: -17.578000762762144 Kcal/mole
 H     -3.5811481045     1.6972601979     0.2692227960
 F     -3.8001212046     1.0944025458    -0.3861415552
 H     -1.7736515263     1.6361633643     1.1734356721
 F     -2.3829412103     2.2748493813     1.4219014698
 H     -2.2362619468     0.2883260451    -0.2780810321
 F     -1.4123401484     0.2481856964     0.1224568845
