          6
Energy: -17.580069945447804 Kcal/mole
 H      4.8834583429    -5.0951487919     4.9743342887
 F      5.6158962911    -5.6427362200     5.0419483449
 H      3.4513849176    -5.1106444969     6.4100685146
 F      3.3605506078    -4.5494874811     5.6905263464
 H      5.0643910941    -6.3257828854     6.5708876230
 F      4.4222826746    -6.3411197174     7.2253725802
