          6
Energy: -17.580048023142012 Kcal/mole
 H     -5.6135719683    -6.8490970224     1.4829279098
 F     -4.7309212831    -6.6150932280     1.5669457184
 H     -6.7678780467    -6.0028275823     0.0500788370
 F     -7.1364101106    -6.6236383974     0.6154698960
 H     -4.8248508824    -5.4762038223     0.2221269747
 F     -5.3417047473    -5.0891444011    -0.4289767704
