          6
Energy: -17.044344744482828 Kcal/mole
 H     -2.7785739797    -0.0496832207    -0.7739263319
 F     -2.7140411831     0.8488285433    -0.9453939037
 H     -3.7706300205    -0.5816483841     0.9663932888
 F     -3.3982316433    -1.2441287125     0.4532380851
 H     -3.7103853414     1.5170238227     0.4936330941
 F     -4.1678801915     1.2320341997     1.2355012609
          6
Energy: -17.367388552910427 Kcal/mole
 H      0.3961814776    -1.0233137810    -0.8390542827
 F      0.9677701547    -0.6016101569    -0.2591047697
 H     -1.6595076667    -0.8819205636    -0.5195864723
 F     -1.3340003965    -1.4015723468    -1.2014193266
 H     -0.3081300825     0.0489167991     0.8020698288
 F     -1.2031833941     0.1364883833     0.9812339632
          6
Energy: -17.278959040593293 Kcal/mole
 H     -1.3779982273    -1.3931377349     3.2089304766
 F     -0.7064946734    -1.4356196628     3.8319611844
 H     -0.9920238505    -0.8448019318     1.2040166187
 F     -1.8314585065    -1.0477720141     1.5123048021
 H      0.5416950470    -1.0651554058     2.6617913165
 F      0.7561456924    -0.9232712197     1.7815817968
          6
Energy: -17.315972306894253 Kcal/mole
 H      1.5347186341    -3.4617232440     0.9708829382
 F      1.7325724034    -2.6885312004     1.4224545823
 H      0.7130750806    -5.0954500970     2.0622016379
 F      0.9131072806    -5.2142499045     1.1752051753
 H      1.2814241973    -3.3725073408     3.0238740413
 F      0.8783718427    -4.0457192013     3.4984513168
          6
Energy: -17.348937611611916 Kcal/mole
 H      4.6887201057    -6.7673637436     1.0860750080
 F      5.2086503415    -6.8861128002     0.3401124007
 H      5.1005797829    -5.4318180771     2.5052337853
 F      4.3405915666    -5.9363004213     2.5990659514
 H      6.4764543242    -5.7875447027     1.0130930558
 F      6.6363395734    -5.1482996244     1.6508166926
          6
Energy: -16.951119937661474 Kcal/mole
 H      5.8839619248    -6.9021807729     1.2494485284
 F      6.1430863863    -6.9111935435     2.1290292713
 H      3.8971047250    -5.8819170516     0.8783049267
 F      4.3430257228    -6.2124824322     0.1483939781
 H      4.7497645393    -6.0300128968     2.8287859372
 F      3.9239247589    -5.6493535226     2.7105653893
          6
Energy: -16.929763948794232 Kcal/mole
 H      5.9953640112    -3.7371790968     1.7460505829
 F      6.4918346387    -3.9534306521     1.0060227586
 H      4.0765482790    -4.3916839243     1.8526346791
 F      4.3592972605    -3.8081419158     2.5010332739
 H      5.3142978731    -5.3291952298     0.4732701213
 F      4.4364101275    -5.5639096951     0.5961978481
          6
Energy: -17.020471354561778 Kcal/mole
 H      4.7603938855    -4.2969085423     1.3369660270
 F      4.2188443301    -3.9335034486     1.9815975627
 H      6.0865360523    -5.7914794777     2.1196329165
 F      6.0874121708    -5.6113961927     1.2204898562
 H      4.9966063538    -4.6087754448     3.2798969539
 F      5.5898911366    -5.1489825599     3.7238321285
          6
Energy: -17.2897515342479 Kcal/mole
 H      4.7694368646    -6.9135949154     4.9622068841
 F      4.2559351609    -7.1966185902     4.2571518509
 H      5.2006776912    -4.9353731127     5.3037539447
 F      5.6227029239    -5.5671065059     5.8172679395
 H      4.1187343154    -5.5415993029     3.7193554452
 F      4.2459642462    -4.6449112686     3.8630638784
          6
Energy: -17.32580332794032 Kcal/mole
 H      5.4493648366    -7.1293247868     7.0523515196
 F      6.2486821598    -6.7368444706     7.2713036108
 H      3.7423470790    -6.0710233385     6.9810909778
 F      3.7156338875    -6.9794506084     6.8588809096
 H      5.4261940945    -5.0155812158     7.3255938315
 F      4.5971962063    -4.6256514878     7.2855150511
          6
Energy: -17.41645286065409 Kcal/mole
 H      5.6115638592    -5.0875435816     4.6008970832
 F      5.9028184475    -5.7228392308     4.0072143372
 H      4.0893498355    -5.6213240135     5.7892582348
 F      4.4024240460    -4.7650576742     5.8876528218
 H      4.7595325792    -6.9440819547     4.4577624667
 F      4.0998757677    -7.1978020560     5.0420295299
          6
Energy: -17.29979212560528 Kcal/mole
 H      4.7356693139    -3.7270168822     5.7759092598
 F      4.1190569064    -3.1128506554     5.4869836901
 H      5.3354999143    -5.3577732953     4.5536384253
 F      5.6897250953    -5.2004677173     5.3847030896
 H      3.8760735437    -3.9321381488     4.0480379825
 F      4.0087715181    -4.6258986271     3.4632502891
          6
Energy: -17.14590873259624 Kcal/mole
 H      4.8388824944    -2.6925535127     4.8850129573
 F      5.6653437114    -2.6800421586     4.4879055124
 H      3.5624115664    -4.2811923248     4.1720232830
 F      3.1992141034    -3.5931320840     4.6573579179
 H      5.4408687215    -4.1542822974     3.5847955930
 F      4.9871601629    -4.9145836257     3.3460919397
          6
Energy: -17.275503482188526 Kcal/mole
 H      4.4450394136    -4.2571979509     5.5599335423
 F      5.0808821497    -4.8024995138     5.9330812615
 H      4.7333514521    -3.4449121378     3.7180585568
 F      3.9296731183    -3.3312300743     4.1447510974
 H      6.1995074670    -4.7613558672     4.4042842433
 F      6.2704758274    -4.3222696044     3.6023766765
          6
Energy: -17.21582856258226 Kcal/mole
 H      7.0901137567    -3.2265870767     2.7332569282
 F      7.4157880577    -2.4069913792     2.4820833982
 H      5.6322647449    -4.1397304895     1.6895718407
 F      5.9398929912    -4.5373778026     2.4564684938
 H      6.1747886272    -2.2378172629     1.2544788166
 F      5.5600938201    -2.6920418516     0.7478040519
          6
Energy: -17.144238961424833 Kcal/mole
 H      4.9762835977    -2.7857658136     0.0762836361
 F      5.8592467586    -2.6598913390    -0.1368376278
 H      4.2179542304    -4.8325881622    -0.0405588791
 F      3.6310026774    -4.1927940396     0.2544671453
 H      6.1874860653    -4.3618846497    -0.4795485442
 F      5.9274124733    -5.2408728583    -0.5046574220
          6
Energy: -17.286617729124544 Kcal/mole
 H      5.0763010408    -3.4360930217    -0.6978845705
 F      5.7573373816    -2.9301054947    -0.3499548005
 H      5.1331927612    -5.3608892692    -0.7437905328
 F      4.3623636184    -4.9526180931    -1.0266793438
 H      6.7515758394    -4.4620465404    -0.0099998340
 F      6.6589953416    -5.3729858733    -0.0600736119
          6
Energy: -17.39152236918943 Kcal/mole
 H      6.0336059140    -3.1181245534    -0.3498245265
 F      5.4237402822    -3.3888631577    -0.9788344781
 H      6.9425619793    -4.5316654147     0.8564092158
 F      7.2354850064    -3.6627090881     0.8564598991
 H      5.4944737960    -5.0677525693    -0.5085990233
 F      5.8172614941    -5.6858270260     0.0869520391
          6
Energy: -17.256775253363628 Kcal/mole
 H      5.3118771599    -4.3625619969     2.2458330812
 F      4.5085702324    -4.1123131296     2.6104732939
 H      5.3504808077    -5.3071516527     0.5293163505
 F      6.1436039780    -5.1068224152     0.9436988229
 H      3.5704302836    -4.8177778578     1.1819640796
 F      3.6085141295    -5.3106735433     0.4096348338
          6
Energy: -17.16857313274852 Kcal/mole
 H      6.0165090273    -3.6842399243     1.3492619011
 F      5.3102096234    -3.0998359578     1.3716707398
 H      5.8458641337    -5.7073712849     1.4424881406
 F      6.6882916930    -5.3620198563     1.3332306552
 H      4.2979178331    -4.4630486336     1.6474439471
 F      4.1750536458    -5.3716571106     1.6624114740
          6
Energy: -17.46203449841846 Kcal/mole
 H      4.6857247715    -2.2447756864     2.8695476850
 F      4.5596708403    -3.1056082042     2.5797774611
 H      3.7470896872    -1.6440833690     4.6250349415
 F      4.2428685296    -1.0487478047     4.1344557885
 H      3.5250867146    -3.5000060961     3.9263565893
 F      3.1620936800    -3.2830252618     4.7400176824
          6
Energy: -17.165024706184624 Kcal/mole
 H      0.9410512905    -2.4691690981     2.2267338981
 F      0.0570244612    -2.7059704069     2.2842726260
 H      1.7053238765    -1.8366054642     4.1630938957
 F      2.3015894188    -1.8753019523     3.4674941653
 H     -0.1262935241    -2.4688770847     3.9446202542
 F      0.1591674479    -2.2461447795     4.7871114136
          6
Energy: -17.438553502975367 Kcal/mole
 H      2.1016061903    -4.0116854756     2.3305887429
 F      1.7147862644    -4.1967937558     1.5200369126
 H      0.9930837991    -3.0736810791     3.7408541222
 F      1.8564225049    -3.3117677322     3.9379582183
 H      0.1409542854    -3.5019366646     2.0258452754
 F     -0.3254227172    -3.0884931994     2.6984863331
          6
Energy: -17.401870596814547 Kcal/mole
 H      1.7538831903    -3.1072931431     4.2301283868
 F      2.2302222786    -2.3250903287     4.1837729110
 H     -0.2399006578    -3.0021746099     3.5847102628
 F      0.1161293193    -3.8230900128     3.7852833334
 H      0.8900248472    -1.3418478998     3.6992070103
 F      0.0190807930    -1.2359738842     3.4324934049
          6
Energy: -17.245303237965913 Kcal/mole
 H     -0.4722591017    -2.4357316770     3.9305485332
 F     -0.7858923155    -1.5879285336     4.0846687373
 H      1.2418607965    -2.6778997663     3.0298544500
 F      0.8088542625    -3.4502793336     3.2682326065
 H      0.7037657341    -0.7022139125     3.3090002447
 F      1.4962184301    -0.9516697213     2.9208256397
          6
Energy: -17.33128219563696 Kcal/mole
 H     -1.4555164778     0.6648806864     1.8630617627
 F     -1.4595367061     1.5437143484     1.6012904268
 H      0.2192734731    -0.4345476147     1.2078540428
 F     -0.4311385831    -0.8742714789     1.6816642163
 H     -0.0153515784     1.5279278982     0.6180084860
 F      0.7113850256     1.0470386489     0.3325466878
          6
Energy: -17.345462761330566 Kcal/mole
 H     -1.0699242692     0.2699096321     2.0446818422
 F     -1.3802809108     1.1327042530     2.0323045560
 H      0.9227449079    -6.64825E-400     1.7935542679
 F      0.3909844868    -0.7376094846     1.9161610514
 H      0.1610344494     1.8540936607     1.6628877375
 F      1.0684126550     1.8013913592     1.5413300993
          6
Energy: -17.458767018239882 Kcal/mole
 H      0.8603898939    -0.8513547249     2.3486980764
 F     -0.0508944491    -0.8771083621     2.2497708488
 H      1.8639481635     0.7566613654     1.5478403279
 F      2.3079633517     0.1116235901     2.0249836827
 H     -0.1496949727     0.5468292517     1.2779042742
 F      0.2699095140     1.2543746527     0.8726875664
          6
Energy: -17.277208735092813 Kcal/mole
 H     -0.5736390485    -1.6263459163     2.3926926309
 F     -1.2473744576    -1.0318527530     2.5758523352
 H      1.2397727667    -0.7584577348     1.7044665851
 F      1.1239066261    -1.6638513776     1.7923664663
 H     -0.3714685812     0.4355720222     2.0420305366
 F      0.4272923776     0.8206261513     1.8083571570
          6
Energy: -17.397461368614927 Kcal/mole
 H      0.7231101200    -4.2013199626     1.0498359680
 F      0.2256642092    -4.0657024545     0.2915191099
 H      1.7135057941    -2.6725071427     1.9450361332
 F      1.7462517622    -3.5104391655     2.3160976196
 H      0.7294039189    -2.3792534411     0.1074176723
 F      1.1763923378    -1.6682006413     0.4755131344
          6
Energy: -17.33855407383436 Kcal/mole
 H      0.5052177417    -3.9863072779    -0.3247352708
 F      1.1373538352    -3.7437845184    -0.9431814450
 H      0.2779070199    -2.9245057807     1.3783514638
 F     -0.1992046311    -3.7021457468     1.2859958700
 H      1.6165231603    -2.3021567185     0.0390126804
 F      1.5149922382    -1.7862374447     0.7902834536
          6
Energy: -17.453018271584085 Kcal/mole
 H      1.3349181373    -4.6523093735     2.4436566500
 F      1.9155731930    -4.6924247600     1.7350527677
 H     -0.1235232095    -3.2581955596     2.3637792448
 F     -0.0846138284    -3.8067204710     3.0976017585
 H      1.1677843686    -3.3569405686     0.7948999125
 F      0.4764708592    -2.7554867203     0.7598585085
          6
Energy: -17.466404357507486 Kcal/mole
 H      1.9910076697    -4.2613595766     3.1337425381
 F      2.4092200534    -3.9771320732     2.3687574870
 H      0.1103236123    -3.8515207653     3.4991717775
 F      0.5731689533    -4.3324821096     4.1279319668
 H      0.8722942760    -3.2381397613     1.7702472841
 F      0.0098929930    -3.0279698955     2.0004247256
          6
Energy: -17.440317787158847 Kcal/mole
 H      1.0138447550    -2.9032564994     3.5135271745
 F      1.2072252900    -3.6300707107     2.9888996200
 H     -0.7235455500    -1.9099234304     3.2798191716
 F     -0.1097872847    -1.6394794617     3.9051589604
 H     -0.2158295629    -3.4355876634     2.0128696291
 F     -0.9958444087    -2.9806395596     1.8532198148
          6
Energy: -17.417772799161014 Kcal/mole
 H      1.4063875352    -3.0080877528     2.7887317581
 F      1.0830307889    -3.8029235503     3.1120976032
 H      0.5926534821    -2.1230635671     1.1565917863
 F      1.3246038020    -1.7118882344     1.5254719496
 H     -0.1576756541    -3.8723322400     1.9187984470
 F     -0.5860720841    -3.4660592869     1.2171519645
          6
Energy: -17.56467149167247 Kcal/mole
 H      1.4084535777    -1.8426144685     0.8653695840
 F      0.6533832483    -1.3225743785     0.8831488532
 H      1.3380370401    -3.8025306279     0.4584491144
 F      2.1460281505    -3.3985450369     0.6160403824
 H     -0.3864269137    -2.7163549868     0.5210134283
 F     -0.4207913187    -3.6183686923     0.3595223673
          6
Energy: -17.47435436500558 Kcal/mole
 H     -0.1482250223    -3.1863991760     2.6024456169
 F     -0.4429889323    -2.3552896761     2.3509297395
 H     -0.4265020934    -4.7773527978     1.3597365907
 F     -0.0311300883    -4.9223480069     2.1743201449
 H     -1.0106595173    -2.8856361972     0.7883802637
 F     -1.1201963739    -3.5650389539     0.1823253394
          6
Energy: -17.500019846656983 Kcal/mole
 H      0.5831997001    -3.0977281360     1.9460166065
 F      0.3613550278    -2.2533157171     2.2264477179
 H     -0.8713406266    -4.5028883113     2.0255250244
 F     -0.0510998109    -4.7649746261     1.7102398078
 H     -1.3066559406    -2.6338242698     2.5859986308
 F     -1.9495007872    -3.2839237624     2.6567810650
          6
Energy: -17.413998639358738 Kcal/mole
 H      0.3665336788    -1.4532902236     2.2921624535
 F     -0.2387352653    -0.9349161725     1.8384810141
 H      0.1013506005    -3.4605617836     2.4031563757
 F      0.8604411248    -3.0792504196     2.7485144791
 H     -1.3844840615    -2.3080887790     1.4622562306
 F     -1.4951337704    -3.2114604363     1.5743512383
          6
Energy: -17.42565578343948 Kcal/mole
 H     -0.0030921118    -2.0948376620     2.1011579113
 F     -0.4243341034    -2.0830942957     2.9155940831
 H     -0.6409491194    -3.0862534126     0.5351040349
 F      0.1175764095    -2.5759604590     0.4634861355
 H     -1.7117950163    -3.2800008382     2.3127945348
 F     -1.9251494054    -3.7422809728     1.5501242379
          6
Energy: -17.48863403466521 Kcal/mole
 H     -0.5663830181    -2.2937379323     0.9818317955
 F     -0.9783210782    -1.9578909502     1.7290953629
 H     -1.4026522782    -3.9876967719     0.1482810413
 F     -0.6267576494    -3.6358883486    -0.1909937121
 H     -2.2830722109    -3.1531530828     1.7638147250
 F     -2.6689377456    -3.8929729067     1.3834682814
          6
Energy: -17.3215381708402 Kcal/mole
 H     -1.3337067104    -2.3636179393    -0.1178987058
 F     -2.2311963472    -2.1755011488    -0.1142346978
 H     -0.8108016897    -4.0576758720     0.9918339220
 F     -0.1917719620    -3.6125048309     0.4824088143
 H     -2.7178789964    -3.5017166037     0.9686376751
 F     -2.4702345063    -4.2359450283     1.4590149044
          6
Energy: -17.551302657454755 Kcal/mole
 H     -1.7145882950    -0.9793941993     0.5661413227
 F     -2.3575744036    -0.9423809303    -0.0866127521
 H     -2.0191587320    -1.9548758773     2.3031201149
 F     -1.2219124575    -1.5272273985     2.1534399345
 H     -3.4458979958    -1.8766715016     0.8837718194
 F     -3.6321121311    -2.3194847728     1.6648798163
          6
Energy: -17.483725131992742 Kcal/mole
 H     -2.1046308687    -3.5362624412     0.4286519754
 F     -2.6171270241    -3.5491199392    -0.3316580767
 H     -2.8515565648    -3.0972827664     2.2539102358
 F     -1.9638970314    -3.3187697555     2.1915157932
 H     -4.0765753634    -3.0866531286     0.6032134647
 F     -4.3749944989    -2.8538342803     1.4384561859
          6
Energy: -17.500545391004096 Kcal/mole
 H     -2.2776012731    -4.2295235801     1.1080691098
 F     -2.3500078815    -3.9959859705     0.2242668310
 H     -3.7218253987    -3.7847420928     2.4719277796
 F     -2.9516824787    -4.2258978021     2.7024717515
 H     -3.9656340021    -3.2406602189     0.4860833828
 F     -4.6087887608    -3.0091930309     1.0973639217
          6
Energy: -17.54014328910904 Kcal/mole
 H     -2.1238308231    -4.2203025978     1.9504315393
 F     -2.0867250589    -4.0675297096     1.0470088215
 H     -2.7939460650    -2.8296512506     3.2122099150
 F     -2.5469136187    -3.6518091617     3.5345766931
 H     -2.6471551036    -2.4311477374     1.2287525128
 F     -2.9372345812    -1.7714913788     1.7958472008
          6
Energy: -17.464954996560664 Kcal/mole
 H     -3.3737046122    -3.5713966574     1.6305895361
 F     -2.7745295930    -3.3613177824     0.9689664088
 H     -3.2532641083    -2.4095137933     3.3027735918
 F     -3.8852545253    -3.0736581077     3.2830392954
 H     -1.9945945313    -2.0117033964     1.8389220456
 F     -1.9908394717    -1.5089546392     2.6058109467
          6
Energy: -17.484174864581803 Kcal/mole
 H     -3.5392987047    -3.9599436376     2.2675760322
 F     -3.5480730617    -3.8503043090     1.3571963157
 H     -3.5404861603    -2.3071514731     3.4866660729
 F     -3.5323932971    -3.1311937323     3.8888822595
 H     -3.5287364603    -2.1062882286     1.4458859311
 F     -3.5198317820    -1.3455725491     1.9578638229
          6
Energy: -17.513706927648627 Kcal/mole
 H     -2.9006421775    -3.8369335876     2.3755008444
 F     -3.2451068569    -4.1202258521     1.5742651877
 H     -3.7856654862    -2.2611673663     3.2944956094
 F     -3.0454697210    -2.6367409726     3.6842951676
 H     -4.5004925180    -2.8426799651     1.4935680363
 F     -4.8960692931    -2.1467501154     1.9408818627
          6
Energy: -17.46314475587468 Kcal/mole
 H     -3.5278867995    -5.1168598793     3.2469971866
 F     -3.9100974096    -5.5364915550     2.5267796457
 H     -4.4575787413    -3.5282585995     4.1307308066
 F     -3.6472087977    -3.8337208688     4.4321978138
 H     -5.2255114966    -4.3986400500     2.4713632915
 F     -5.6428413102    -3.6618091713     2.8232227564
          6
Energy: -17.54378934952723 Kcal/mole
 H     -4.2214811100    -5.3156976758     3.6337535936
 F     -4.5444558994    -5.7357626902     2.8853408271
 H     -4.8715426238    -3.4636826530     4.1189870697
 F     -4.2246389882    -3.8664896984     4.6290372343
 H     -5.6215339207    -4.4396299698     2.5163765741
 F     -5.9458175254    -3.6048020670     2.7133321946
          6
Energy: -17.51924598634372 Kcal/mole
 H     -4.5168936685    -5.4180343832     3.9855852535
 F     -4.9547892414    -5.8371095600     3.2974628346
 H     -4.3146623420    -3.4322780780     3.9771500795
 F     -3.9843700528    -3.8938913588     4.6973647577
 H     -5.2814295285    -4.3251426432     2.4221224793
 F     -5.1768199137    -3.4147389279     2.4554527012
          6
Energy: -17.511721828793156 Kcal/mole
 H     -4.5813802356    -5.4935813545     3.8268693241
 F     -5.3048222464    -5.7584028915     3.3294859604
 H     -4.0459983298    -3.5270891965     3.9224854760
 F     -3.5230164139    -4.1526155304     4.3421230831
 H     -5.6813416684    -4.0535517030     2.8209339002
 F     -5.4285951530    -3.1737170430     2.8747778421
          6
Energy: -17.547980212980576 Kcal/mole
 H     -5.0132977868    -5.2956551501     4.4055013180
 F     -5.8114708461    -5.4557857887     3.9834030522
 H     -3.8576249324    -3.6820047374     3.9718624034
 F     -3.5707555206    -4.2909378212     4.5945946413
 H     -5.6313493222    -3.9612942877     3.0008311406
 F     -5.1209222588    -3.2197775055     2.8261712577
          6
Energy: -17.552529291333542 Kcal/mole
 H     -5.1466979436    -5.1214553198     4.3321892203
 F     -5.9596831628    -5.2284286134     3.9217007944
 H     -3.8437843104    -3.6538692617     3.8234519394
 F     -3.6312047981    -4.2388999021     4.4968300655
 H     -5.6646707098    -3.8305944458     2.8871322749
 F     -5.0801704821    -3.1750809762     2.6234078447
          6
Energy: -17.532602214532858 Kcal/mole
 H     -5.3677691008    -4.6903577291     4.6227396811
 F     -6.1707597406    -4.6811031977     4.1800102084
 H     -3.7317831153    -3.6828786930     3.9754333258
 F     -3.7055211775    -4.1535324780     4.7619982152
 H     -5.5170776601    -3.5838235437     2.9349743075
 F     -4.7849980590    -3.1197204710     2.6357138931
          6
Energy: -17.55001815753684 Kcal/mole
 H     -5.5016413600    -4.4746539371     4.7090341114
 F     -6.3058411085    -4.3811719033     4.2784381595
 H     -3.7307845136    -3.9165922731     3.8625513441
 F     -3.7476231760    -4.2771390386     4.7055290955
 H     -5.5070529490    -3.7184964491     2.8361348856
 F     -4.7149673558    -3.4632759652     2.4509700927
          6
Energy: -17.568361616151435 Kcal/mole
 H     -5.4731292071    -4.5659672883     4.6828954015
 F     -6.2657790061    -4.4573123968     4.2348000872
 H     -3.7208970046    -3.9829865661     3.8420750239
 F     -3.7166457468    -4.3532165312     4.6810033282
 H     -5.4504860356    -3.7491233380     2.8324168543
 F     -4.6623718429    -3.5068093975     2.4311077795
          6
Energy: -17.57441705730116 Kcal/mole
 H     -5.4485787252    -4.5613423200     4.6990416545
 F     -6.2478207007    -4.4065952018     4.2769580205
 H     -3.7063372103    -4.0286304735     3.8203457660
 F     -3.6925034607    -4.4142919119     4.6521888295
 H     -5.4510974162    -3.6736447987     2.8724806420
 F     -4.6606261152    -3.4482961959     2.4659561907
          6
Energy: -17.579549727426922 Kcal/mole
 H     -5.4481436496    -4.5551787843     4.7004275067
 F     -6.2478437805    -4.4069221631     4.2768845043
 H     -3.7071235979    -4.0211403144     3.8238752396
 F     -3.6924617446    -4.4146892475     4.6520015991
 H     -5.4550590582    -3.6847890597     2.8716408718
 F     -4.6674465002    -3.4409911721     2.4702457441
