          6
Energy: -0.6888061033699273 Kcal/mole
 H      2.7644365499    -2.7305054040    -5.3857593337
 F      2.0716743195    -2.7305054040    -4.7849519668
 H      1.4795579210     1.3935648748    -3.6635923883
 F      1.7131284565     2.2803195223    -3.6635923883
 H     -3.9822093550    -4.7812569675     1.4975207052
 F     -3.0652093550    -4.7812569675     1.4975207052
