          6
Energy: -17.574230277583467 Kcal/mole
 H     -4.8657115144    -7.4444823027     0.1446676134
 F     -4.0330017596    -7.1078027679    -0.0400764125
 H     -6.4532951442    -6.1905850201     0.3456044666
 F     -6.5713054282    -7.0944155927     0.4458684627
 H     -4.6224443524    -5.4451735499    -0.0459283064
 F     -5.3303885526    -4.8672943489     0.0299639744
          6
Energy: -17.573541037474456 Kcal/mole
 H     -4.8452431535    -7.4058403899     0.2663240106
 F     -4.0174901138    -7.0855454411     0.0358352881
 H     -6.4623415123    -6.1781302257     0.3724163210
 F     -6.5504011221    -7.0727347560     0.5535716125
 H     -4.6318940224    -5.4264679167    -0.1264267016
 F     -5.3568126657    -4.8668253905    -0.0797126407
          6
Energy: -17.57131587042278 Kcal/mole
 H     -4.9099390157    -7.4386389820     0.2952767757
 F     -4.0867364367    -7.1333519019     0.0306519230
 H     -6.4898638473    -6.1711739682     0.3938970645
 F     -6.5996822040    -7.0568284948     0.6047168642
 H     -4.6809943377    -5.5012635869    -0.1917948586
 F     -5.3845032492    -4.9145767425    -0.1498096459
          6
Energy: -17.56745163833216 Kcal/mole
 H     -4.9135193669    -7.4325079269     0.3039508888
 F     -4.0927881310    -7.1081543075     0.0547843418
 H     -6.5049606558    -6.1779966433     0.3631596559
 F     -6.6219190470    -7.0576231668     0.5943887930
 H     -4.6851898826    -5.4659274459    -0.1953530016
 F     -5.4008466602    -4.8929703106    -0.1742698838
          6
Energy: -17.568253223779095 Kcal/mole
 H     -4.9304797847    -7.4344662920     0.2133092924
 F     -4.1114835204    -7.1327391381    -0.0679287627
 H     -6.4809135895    -6.1569831260     0.3981602778
 F     -6.6050290583    -7.0381514827     0.6195799642
 H     -4.6803644510    -5.4747416351    -0.2362133606
 F     -5.3789448082    -4.8845606566    -0.1686789468
          6
Energy: -17.56317985742089 Kcal/mole
 H     -4.9241267382    -7.4229890351     0.2621311769
 F     -4.0835292529    -7.1284195870     0.0441547839
 H     -6.4664322716    -6.1408498708     0.3810329034
 F     -6.6206658183    -7.0257421724     0.5656043735
 H     -4.6315398697    -5.4413312535    -0.1445190955
 F     -5.3449631377    -4.8676208340    -0.0918636568
          6
Energy: -17.57124183978857 Kcal/mole
 H     -4.9248028990    -7.4088688372     0.2865490241
 F     -4.0832372899    -7.1226942259     0.0612482978
 H     -6.4921166938    -6.1545963233     0.2918713453
 F     -6.6223144783    -7.0348786974     0.5133221948
 H     -4.6399416644    -5.4583423232    -0.1926622472
 F     -5.3536339770    -4.8828943105    -0.1728665989
          6
Energy: -17.569107483983316 Kcal/mole
 H     -4.9537852292    -7.4382128881     0.2441921422
 F     -4.1027220553    -7.1311196098     0.0949467323
 H     -6.5322243572    -6.1338477530     0.1774646508
 F     -6.6814074717    -7.0224171812     0.3479867009
 H     -4.6451810571    -5.4700067313    -0.1304061595
 F     -5.3349302491    -4.8658936718    -0.1439140669
          6
Energy: -17.567893870265323 Kcal/mole
 H     -4.9701820026    -7.3972428838     0.3003512897
 F     -4.1073180909    -7.1075563684     0.1888318176
 H     -6.5298319896    -6.1357770068     0.1697189509
 F     -6.6815343812    -7.0223148388     0.3483975924
 H     -4.6364558861    -5.4556231047    -0.0502011108
 F     -5.3312290052    -4.8618878173    -0.1254189380
          6
Energy: -17.571852887516343 Kcal/mole
 H     -4.9866616195    -7.4117886344     0.3222324453
 F     -4.1236377772    -7.1245127937     0.2058217976
 H     -6.5426589977    -6.1208052608     0.1549203219
 F     -6.7068569467    -7.0039890179     0.3390791794
 H     -4.6390450189    -5.4697547785    -0.1171463018
 F     -5.3258465901    -4.8659194171    -0.1847884331
          6
Energy: -17.572269202999337 Kcal/mole
 H     -5.0095437440    -7.4508649888     0.2002701111
 F     -4.1414426963    -7.1819105666     0.0779872846
 H     -6.5354831514    -6.1339784473     0.0834018327
 F     -6.7159539283    -7.0164761150     0.2552074360
 H     -4.6235956683    -5.5274677470    -0.2013888646
 F     -5.3002194165    -4.9103900396    -0.2491843293
          6
Energy: -17.571608793640166 Kcal/mole
 H     -4.9748932345    -7.4442427682     0.2211731968
 F     -4.1135341969    -7.1655354345     0.0753245411
 H     -6.5059706837    -6.1469919052     0.0761818437
 F     -6.6898362920    -7.0241002416     0.2705099280
 H     -4.6212960772    -5.5009478977    -0.2344908194
 F     -5.3150420256    -4.9043308067    -0.2949358839
          6
Energy: -17.571862348936975 Kcal/mole
 H     -4.9454749026    -7.4715528447     0.1666785008
 F     -4.0916399605    -7.1703268198     0.0213589438
 H     -6.5280777343    -6.1936150436     0.0206170032
 F     -6.6741715099    -7.0693114738     0.2501847943
 H     -4.6413507618    -5.5268948750    -0.2875756532
 F     -5.3406694891    -4.9379173861    -0.3579165043
          6
Energy: -17.571401943275475 Kcal/mole
 H     -4.9669560050    -7.4473143117     0.2611744185
 F     -4.1129967065    -7.1402304431     0.1294853373
 H     -6.5472147533    -6.2081750980    -0.0478553655
 F     -6.6916128854    -7.0712003092     0.2264176085
 H     -4.6631946929    -5.5279822097    -0.3056223557
 F     -5.3706297849    -4.9628627838    -0.4507589298
          6
Energy: -17.569494694468858 Kcal/mole
 H     -4.9537651571    -7.4266495304     0.2845131840
 F     -4.0934833247    -7.1228362939     0.1923085943
 H     -6.5436743225    -6.2148602086    -0.0743721684
 F     -6.6870902500    -7.0811875173     0.1898206891
 H     -4.6357908896    -5.4950030666    -0.2887075383
 F     -5.3504899280    -4.9454983376    -0.4564538864
          6
Energy: -17.569231466468636 Kcal/mole
 H     -4.9262360240    -7.4583942864     0.1797528228
 F     -4.0668381797    -7.1436568987     0.1226150772
 H     -6.4873198310    -6.1878044875    -0.0094988741
 F     -6.6470536765    -7.0800987368     0.1290113104
 H     -4.5978322273    -5.4610160666    -0.1522301343
 F     -5.3133367466    -4.8913270412    -0.2185377301
          6
Energy: -17.573949638728266 Kcal/mole
 H     -4.9362421961    -7.4501396790     0.2279801610
 F     -4.0756247608    -7.1356176221     0.1918899146
 H     -6.5021549842    -6.2029645091    -0.0975516588
 F     -6.6574172331    -7.0875472786     0.0876400205
 H     -4.6168275208    -5.4943564808    -0.1870476786
 F     -5.3130449493    -4.9157654812    -0.3333444575
          6
Energy: -17.57000864544193 Kcal/mole
 H     -4.9252871526    -7.4148312623     0.2473510645
 F     -4.0662788662    -7.0952236183     0.2182870350
 H     -6.5081196412    -6.1784408604    -0.0670957418
 F     -6.6548975766    -7.0657675882     0.1117799577
 H     -4.5908403537    -5.4474198055    -0.1404513146
 F     -5.2992805313    -4.8844496157    -0.2889978736
          6
Energy: -17.573280007588266 Kcal/mole
 H     -4.9342634151    -7.3984075244     0.3372300410
 F     -4.0771534285    -7.0777872790     0.2784582018
 H     -6.5207146253    -6.1897592902    -0.0532123341
 F     -6.6611582429    -7.0660752058     0.1775147913
 H     -4.6226777415    -5.4767947500    -0.1597623071
 F     -5.3243675279    -4.9142500570    -0.3388262956
          6
Energy: -17.565850399981116 Kcal/mole
 H     -4.9375686791    -7.4188622372     0.3098126071
 F     -4.0833763828    -7.0866227756     0.2804619491
 H     -6.5016539386    -6.1494972683     0.0060873123
 F     -6.6802756250    -7.0361047738     0.1574492105
 H     -4.6315103714    -5.4436204691    -0.0372321075
 F     -5.3345533378    -4.8671877181    -0.1570021831
          6
Energy: -17.5773265662973 Kcal/mole
 H     -4.9430015102    -7.4019178651     0.2853106521
 F     -4.0862047757    -7.0767496141     0.2528458372
 H     -6.5172397756    -6.1579210310     0.0257234469
 F     -6.6682521658    -7.0496767418     0.1769054908
 H     -4.6263383269    -5.4340945073    -0.0428182725
 F     -5.3287305510    -4.8577796667    -0.1668963451
          6
Energy: -17.567263016609502 Kcal/mole
 H     -4.9611088214    -7.3897374156     0.3246535555
 F     -4.1056179337    -7.0595725653     0.3285921773
 H     -6.5140542107    -6.1645455405    -0.0345826697
 F     -6.6697778803    -7.0558162564     0.1146676227
 H     -4.6306220024    -5.4308538078    -0.0347860231
 F     -5.3315645782    -4.8598829487    -0.1882812464
          6
Energy: -17.573374655832993 Kcal/mole
 H     -4.9704633118    -7.3998368668     0.3437156296
 F     -4.1045519079    -7.0988439564     0.3215862695
 H     -6.5186897458    -6.1683391053    -0.0666553565
 F     -6.6831228785    -7.0479408233     0.1337231914
 H     -4.6160261282    -5.4578013278    -0.0736751834
 F     -5.3082517654    -4.8846419909    -0.2558867135
          6
Energy: -17.574319838956626 Kcal/mole
 H     -4.9759085759    -7.3924058623     0.4016942110
 F     -4.1085383114    -7.0961405876     0.3736815101
 H     -6.5209567490    -6.1475596641     0.0109613635
 F     -6.6886975084    -7.0237935513     0.2230137449
 H     -4.6182481853    -5.4608742685    -0.0821162063
 F     -5.3100431380    -4.8905439156    -0.2745532921
          6
Energy: -17.57159342555974 Kcal/mole
 H     -4.9680820186    -7.3955652081     0.3671419654
 F     -4.0992145284    -7.1049318196     0.3285347371
 H     -6.5256163310    -6.1506828944    -0.0049253970
 F     -6.6884503284    -7.0236278712     0.2238565009
 H     -4.6087867173    -5.4606262072    -0.1202710297
 F     -5.3075718516    -4.8936927173    -0.2968347692
          6
Energy: -17.567134039230325 Kcal/mole
 H     -4.9617420425    -7.4024665033     0.4095246263
 F     -4.1008425897    -7.0969627794     0.3294708517
 H     -6.5100673532    -6.1480348244     0.0055513002
 F     -6.6987989960    -7.0038812475     0.2753591339
 H     -4.6225719666    -5.4849663831    -0.1672906999
 F     -5.3218982383    -4.9174031980    -0.3396385945
          6
Energy: -17.574403884532842 Kcal/mole
 H     -4.9633541165    -7.3853274646     0.4466033511
 F     -4.1007570729    -7.0978719658     0.3275039111
 H     -6.5272827937    -6.1480736918     0.0291842779
 F     -6.6929326774    -6.9973650072     0.3327520260
 H     -4.6333048374    -5.5042118171    -0.2364955083
 F     -5.3297500549    -4.9372294303    -0.4219248266
          6
Energy: -17.572413922119438 Kcal/mole
 H     -4.9532803805    -7.3698809747     0.4288495885
 F     -4.0962716261    -7.0595024256     0.3283998446
 H     -6.5059181141    -6.1350250523     0.0802108965
 F     -6.6799247629    -6.9987222058     0.3344507697
 H     -4.6330247245    -5.4484800765    -0.1318527770
 F     -5.3411096663    -4.8891083506    -0.2949723267
          6
Energy: -17.57458454199815 Kcal/mole
 H     -4.9794002417    -7.3485124857     0.4635863993
 F     -4.1189950462    -7.0644880230     0.3224410693
 H     -6.5371260367    -6.0891143675     0.1704931941
 F     -6.6948617467    -6.9476797365     0.4513382633
 H     -4.6479989798    -5.4712128645    -0.1635132576
 F     -5.3363411615    -4.8822125019    -0.3054731598
          6
Energy: -17.57347654603268 Kcal/mole
 H     -4.9600153654    -7.3137437863     0.5614926278
 F     -4.1005582752    -7.0166303801     0.4433988767
 H     -6.5460657046    -6.0828612839     0.1880354881
 F     -6.6922851585    -6.9377224595     0.4858965998
 H     -4.6357160693    -5.4279746871    -0.0916653494
 F     -5.3335597490    -4.8634220775    -0.2792381346
          6
Energy: -17.574946971742747 Kcal/mole
 H     -4.9361083659    -7.3485872167     0.5484057185
 F     -4.0801185307    -7.0392434094     0.4367060724
 H     -6.5273519102    -6.1561388421     0.1929070624
 F     -6.6604377737    -7.0215558193     0.4653600098
 H     -4.6413029815    -5.4385853662    -0.0684397560
 F     -5.3541717432    -4.8840075174    -0.2270289686
          6
Energy: -17.57556548726194 Kcal/mole
 H     -4.9524925329    -7.3496429394     0.5230617878
 F     -4.0945274883    -7.0589624111     0.3806194746
 H     -6.5275983319    -6.1233814646     0.2226842156
 F     -6.6736531710    -6.9796844831     0.5164564481
 H     -4.6448217900    -5.4421933182    -0.0959859382
 F     -5.3625491626    -4.8879358240    -0.2322028561
          6
Energy: -17.574398809079014 Kcal/mole
 H     -4.9449935306    -7.3465393288     0.5362266007
 F     -4.0886385248    -7.0392409624     0.4217153867
 H     -6.5408889528    -6.1361186480     0.2634283706
 F     -6.6677822309    -7.0056534150     0.5255283230
 H     -4.6520098176    -5.4305778579    -0.0095044549
 F     -5.3632222119    -4.8669307284    -0.1412915698
          6
Energy: -17.562371943183564 Kcal/mole
 H     -4.9455364316    -7.3784314788     0.4948942110
 F     -4.0942247080    -7.0587169232     0.3768266363
 H     -6.5235142732    -6.1332449205     0.2909918657
 F     -6.6755966718    -7.0102112984     0.5116497818
 H     -4.6737938904    -5.4319731398     0.0549035404
 F     -5.3882553202    -4.8661374340    -0.0464069692
          6
Energy: -17.57518630091829 Kcal/mole
 H     -4.9482750239    -7.3986482225     0.4912162451
 F     -4.0944692876    -7.0885504327     0.3657406485
 H     -6.5362885292    -6.1664738187     0.3151612993
 F     -6.6624003246    -7.0497969152     0.5266444480
 H     -4.6604857203    -5.4469825272     0.0326703785
 F     -5.3756748691    -4.8780137875    -0.0426161063
          6
Energy: -17.578549272725922 Kcal/mole
 H     -4.9408301515    -7.3873507287     0.5106274870
 F     -4.0896528453    -7.0783583490     0.3660249186
 H     -6.5228241402    -6.1262940378     0.3583067701
 F     -6.6661321420    -7.0070488290     0.5695478987
 H     -4.6460656949    -5.4442784162     0.0339008265
 F     -5.3523793550    -4.8645719852    -0.0432384457
          6
Energy: -17.576819237406028 Kcal/mole
 H     -4.9454776632    -7.3906267132     0.4907435644
 F     -4.0929432568    -7.0857891171     0.3453196118
 H     -6.5145340546    -6.1180863522     0.3613998986
 F     -6.6633911807    -6.9979412322     0.5725537432
 H     -4.6463754912    -5.4451978187     0.0297012566
 F     -5.3523629210    -4.8645232130    -0.0430156682
          6
Energy: -17.574391463598488 Kcal/mole
 H     -4.9595485704    -7.3752701838     0.5006709817
 F     -4.1043607772    -7.0801071436     0.3509324832
 H     -6.5395846358    -6.1245787273     0.3261662914
 F     -6.6773374563    -7.0032738374     0.5493434943
 H     -4.6515508040    -5.4374368772     0.0258666102
 F     -5.3549106439    -4.8529638688    -0.0416999344
          6
Energy: -17.566093175251126 Kcal/mole
 H     -4.9550204527    -7.3793397662     0.5173961392
 F     -4.1046009833    -7.0798912617     0.3500452522
 H     -6.5234645120    -6.1251472867     0.4406194866
 F     -6.6627261237    -7.0071384900     0.6493938165
 H     -4.6569134810    -5.4277738864     0.0337883406
 F     -5.3701000931    -4.8542420259    -0.0237882282
          6
Energy: -17.577586462860097 Kcal/mole
 H     -4.9494035204    -7.3940692115     0.4069367660
 F     -4.1038798793    -7.0975828290     0.2118096346
 H     -6.5127602191    -6.1129899705     0.4336324186
 F     -6.6585566037    -7.0008416321     0.6106969302
 H     -4.6490738825    -5.4251148795     0.0282215152
 F     -5.3539778536    -4.8390032296     0.0499591672
          6
Energy: -17.579356313514495 Kcal/mole
 H     -4.9401241993    -7.3891799708     0.4486296817
 F     -4.1002156636    -7.0889368002     0.2357994904
 H     -6.5057053808    -6.1018712274     0.5041870993
 F     -6.6421104952    -6.9890343277     0.6918684202
 H     -4.6558626752    -5.4331417665     0.0272065992
 F     -5.3536177238    -4.8385774218     0.0500130062
          6
Energy: -17.575483624699245 Kcal/mole
 H     -4.9588895402    -7.4055175277     0.3932520955
 F     -4.1175876340    -7.1131348234     0.1750493071
 H     -6.5102264167    -6.1086695819     0.5338542905
 F     -6.6520786770    -6.9998924641     0.6966078175
 H     -4.6570404165    -5.4260840975     0.0604999063
 F     -5.3563798816    -4.8350389997     0.1102895131
          6
Energy: -17.57869003903619 Kcal/mole
 H     -4.9573090448    -7.4071807852     0.4334795499
 F     -4.1168906126    -7.1100523572     0.2183039096
 H     -6.5103364669    -6.1186729312     0.5202404539
 F     -6.6557919333    -7.0069374670     0.6955054581
 H     -4.6663665653    -5.4448618187     0.0323627404
 F     -5.3649861598    -4.8519879474     0.0686977769
          6
Energy: -17.577518048750335 Kcal/mole
 H     -4.9504966579    -7.4046425013     0.4477663442
 F     -4.1093396427    -7.1053177035     0.2386048246
 H     -6.5058026048    -6.1232657668     0.5485131980
 F     -6.6444301896    -7.0126351070     0.7237090013
 H     -4.6559689288    -5.4457133919     0.0739269027
 F     -5.3545030933    -4.8528555843     0.1121190628
          6
Energy: -17.576192009758813 Kcal/mole
 H     -4.9537915727    -7.4066457610     0.4164692533
 F     -4.1089896087    -7.1006126877     0.2333234104
 H     -6.5242784538    -6.1285676699     0.4996848011
 F     -6.6621419038    -7.0241549162     0.6404191376
 H     -4.6652563357    -5.4401217367     0.0913460981
 F     -5.3622806675    -4.8448283348     0.1172661014
          6
Energy: -17.57773682074867 Kcal/mole
 H     -4.9453900712    -7.4070474674     0.4720481852
 F     -4.1016440145    -7.1021921871     0.2821933729
 H     -6.5069068141    -6.1314197514     0.4914852235
 F     -6.6516186388    -7.0178076067     0.6765907545
 H     -4.6657333503    -5.4374893244     0.0644984411
 F     -5.3743025171    -4.8554825659     0.0738187978
          6
Energy: -17.57648325557045 Kcal/mole
 H     -4.9556610735    -7.4030329857     0.4240133657
 F     -4.1123209120    -7.0974574452     0.2335141243
 H     -6.5343467298    -6.1264649900     0.4628115353
 F     -6.6642098526    -7.0168306884     0.6396546648
 H     -4.6669523004    -5.4326259611     0.0547222400
 F     -5.3676369913    -4.8413371455     0.0722579300
          6
Energy: -17.572843937401558 Kcal/mole
 H     -4.9626400461    -7.3987942802     0.3978388085
 F     -4.1119506936    -7.0976822987     0.2349026241
 H     -6.5146514522    -6.1150751594     0.4411037719
 F     -6.6697780737    -7.0044827538     0.6016617434
 H     -4.6569730829    -5.4255407574     0.0779788619
 F     -5.3637218077    -4.8417879202     0.1030360988
          6
Energy: -17.57345021330343 Kcal/mole
 H     -4.9560467562    -7.4022254949     0.4017748537
 F     -4.1087385655    -7.0958799557     0.2311576194
 H     -6.5186799778    -6.1263353889     0.4598618193
 F     -6.6558021562    -7.0192698192     0.6171978015
 H     -4.6517533829    -5.4193210930     0.0820354790
 F     -5.3639987007    -4.8421178590     0.1028209046
          6
Energy: -17.57707563892194 Kcal/mole
 H     -4.9449445179    -7.3952968351     0.4284867298
 F     -4.0955215400    -7.0896346176     0.2674270721
 H     -6.5052993190    -6.1191544245     0.5024915551
 F     -6.6516744343    -7.0144515045     0.6363065921
 H     -4.6482573427    -5.4120403250     0.1285601355
 F     -5.3585851933    -4.8324355227     0.1480951730
          6
Energy: -17.57526617104662 Kcal/mole
 H     -4.9434130384    -7.3977626379     0.4318201789
 F     -4.0956027814    -7.0895038125     0.2672502403
 H     -6.5224815835    -6.1280494899     0.4511153183
 F     -6.6555785822    -7.0204713572     0.6146922111
 H     -4.6577923844    -5.4235505137     0.0986730881
 F     -5.3599795018    -4.8338995169     0.1102469428
          6
Energy: -17.575393810373043 Kcal/mole
 H     -4.9378816544    -7.4089496476     0.4188200923
 F     -4.0939517470    -7.0974299267     0.2409809101
 H     -6.5235681800    -6.1272188089     0.4548131500
 F     -6.6555209408    -7.0205154229     0.6144960496
 H     -4.6595755314    -5.4362549843     0.0772917514
 F     -5.3633111380    -4.8483497441     0.0808448396
          6
Energy: -17.57884480505936 Kcal/mole
 H     -4.9476940872    -7.4018387213     0.4065582022
 F     -4.1017722178    -7.0985416770     0.2240312351
 H     -6.5135824223    -6.1290963154     0.4529139842
 F     -6.6560506621    -7.0204158255     0.6145967960
 H     -4.6588555137    -5.4347810462     0.0543579092
 F     -5.3633493333    -4.8484279331     0.0820614269
          6
Energy: -17.576038157442213 Kcal/mole
 H     -4.9461264021    -7.4085646846     0.4519812900
 F     -4.0997520122    -7.1114895608     0.2614930675
 H     -6.5202489723    -6.1324715417     0.4302826130
 F     -6.6556970171    -7.0202367775     0.6157973379
 H     -4.6471096358    -5.4463683052     0.0221923016
 F     -5.3517683137    -4.8595784163     0.0174200950
          6
Energy: -17.576509992019965 Kcal/mole
 H     -4.9461645809    -7.4071610798     0.4251887727
 F     -4.0947895025    -7.1101148906     0.2584163608
 H     -6.5108327993    -6.1360153560     0.4453886633
 F     -6.6505271125    -7.0271248916     0.6106106184
 H     -4.6436605675    -5.4416636925     0.0387195941
 F     -5.3513472358    -4.8585536332     0.0458776946
          6
Energy: -17.578941157394866 Kcal/mole
 H     -4.9443551334    -7.4078011558     0.4330778317
 F     -4.0948854895    -7.1100809360     0.2579978645
 H     -6.5102074858    -6.1300564924     0.4406158425
 F     -6.6495197077    -7.0188359210     0.6182453225
 H     -4.6481229812    -5.4470529141     0.0506796782
 F     -5.3511105150    -4.8582677475     0.0452432398
          6
Energy: -17.579098036620906 Kcal/mole
 H     -4.9437077818    -7.4078802328     0.4360562871
 F     -4.0949198301    -7.1100767412     0.2578398643
 H     -6.5037138434    -6.1310784071     0.4407236235
 F     -6.6498641804    -7.0187817108     0.6182396049
 H     -4.6421935524    -5.4399061513     0.0415654580
 F     -5.3514250575    -4.8586468667     0.0457267281
          6
Energy: -17.5777329974797 Kcal/mole
 H     -4.9429144599    -7.4057204674     0.4432740856
 F     -4.0949619139    -7.1101913117     0.2574569768
 H     -6.5080894105    -6.1320814531     0.4323719141
 F     -6.6496320667    -7.0187285015     0.6186826438
 H     -4.6466837779    -5.4453385823     0.0496574942
 F     -5.3511868614    -4.8583586888     0.0452974643
          6
Energy: -17.57783160191326 Kcal/mole
 H     -4.9342641603    -7.4107780218     0.4304719364
 F     -4.0894503839    -7.1121780111     0.2354931763
 H     -6.5085338879    -6.1327957705     0.4286754392
 F     -6.6496084882    -7.0186906086     0.6188787333
 H     -4.6440112958    -5.4587998344     0.0094547554
 F     -5.3483661396    -4.8716356687     0.0128454161
          6
Energy: -17.57620044217873 Kcal/mole
 H     -4.9358313569    -7.4076952555     0.4283582470
 F     -4.0893672478    -7.1123415447     0.2356053027
 H     -6.5114878582    -6.1330712076     0.4252582752
 F     -6.6494517869    -7.0186759973     0.6190600059
 H     -4.6484964050    -5.4641328576     0.0088652948
 F     -5.3481282149    -4.8713527641     0.0128766856
          6
Energy: -17.574722313612142 Kcal/mole
 H     -4.9300453300    -7.4186925011     0.4235930660
 F     -4.0872210557    -7.1145744385     0.2285329557
 H     -6.4914410943    -6.1269133247     0.4591962565
 F     -6.6452177889    -7.0126476234     0.6400732319
 H     -4.6452799439    -5.4601301422    -0.0021778505
 F     -5.3482988407    -4.8715650989     0.0134624990
          6
Energy: -17.576893228354834 Kcal/mole
 H     -4.9310777051    -7.4097382332     0.4326521029
 F     -4.0871662906    -7.1150494417     0.2280523947
 H     -6.5064129172    -6.1324108359     0.4472551084
 F     -6.6425188866    -7.0181625160     0.6416982266
 H     -4.6420883609    -5.4466458011     0.0116490577
 F     -5.3506463678    -4.8647543499     0.0270402881
          6
Energy: -17.57623883599672 Kcal/mole
 H     -4.9309896760    -7.4185990035     0.4196132824
 F     -4.0871709604    -7.1145793983     0.2287440740
 H     -6.5112466721    -6.1316683480     0.4446713767
 F     -6.6481551295    -7.0184083676     0.6339785658
 H     -4.6499611065    -5.4467051258     0.0106819767
 F     -5.3574705134    -4.8633388586     0.0124812796
          6
Energy: -17.578935612655414 Kcal/mole
 H     -4.9464057802    -7.4045208303     0.4331481603
 F     -4.0998556709    -7.1104254143     0.2388550860
 H     -6.5112109697    -6.1332727713     0.4373385797
 F     -6.6481570234    -7.0183232567     0.6343675538
 H     -4.6500729967    -5.4468427091     0.0132864627
 F     -5.3574645779    -4.8633315601     0.0123431177
          6
Energy: -17.5791139970716 Kcal/mole
 H     -4.9446294186    -7.4151851486     0.4242125343
 F     -4.0999499028    -7.1098596969     0.2393291003
 H     -6.5151283555    -6.1305958651     0.4287313256
 F     -6.6605051214    -7.0157357205     0.6192097556
 H     -4.6534444586    -5.4508970944     0.0154559875
 F     -5.3572857296    -4.8631164844     0.0122280294
          6
Energy: -17.579456125757247 Kcal/mole
 H     -4.9449874012    -7.4072688827     0.4351319251
 F     -4.0999309126    -7.1102796365     0.2387498518
 H     -6.5083389675    -6.1316557320     0.4498013906
 F     -6.6476685922    -7.0170638578     0.6435246634
 H     -4.6512095250    -5.4482059906     0.0086813278
 F     -5.3574042877    -4.8632592412     0.0125874094
          6
Energy: -17.579186325992396 Kcal/mole
 H     -4.9456034867    -7.4061970304     0.4340948168
 F     -4.0998982307    -7.1103364958     0.2388048680
 H     -6.5149513301    -6.1306552847     0.4497397385
 F     -6.6473178216    -7.0171169293     0.6435279339
 H     -4.6542189761    -5.4518311362     0.0131427578
 F     -5.3572446433    -4.8630669356     0.0123507409
          6
Energy: -17.57907719844843 Kcal/mole
 H     -4.9444561878    -7.4040732283     0.4420925629
 F     -4.0999590923    -7.1104491585     0.2383806061
 H     -6.5127320974    -6.1217555974     0.4546257562
 F     -6.6506395179    -7.0052680699     0.6577913398
 H     -4.6513042738    -5.4483326901     0.0121524565
 F     -5.3573992615    -4.8632525201     0.0124032741
          6
Energy: -17.578920946797325 Kcal/mole
 H     -4.9424293850    -7.4084345093     0.4441379577
 F     -4.1000666095    -7.1102178027     0.2382721026
 H     -6.5037030016    -6.1235377262     0.4605779643
 F     -6.6496126680    -7.0067647480     0.6593476733
 H     -4.6611621191    -5.4516041070     0.0031917847
 F     -5.3653734825    -4.8642769245     0.0078967137
          6
Energy: -17.579258623541477 Kcal/mole
 H     -4.9439511399    -7.4057396502     0.4417762380
 F     -4.0999858839    -7.1103607587     0.2383973864
 H     -6.5102559304    -6.1237581934     0.4549847996
 F     -6.6492650503    -7.0067530527     0.6596443778
 H     -4.6572102187    -5.4468410570     0.0046283930
 F     -5.3655831217    -4.8645295933     0.0078205049
          6
Energy: -17.57886965868869 Kcal/mole
 H     -4.9429927952    -7.4062923608     0.4449215852
 F     -4.1000367219    -7.1103314387     0.2382305330
 H     -6.5130967513    -6.1225968411     0.4581153023
 F     -6.6491143513    -7.0068146598     0.6594783119
 H     -4.6612202820    -5.4516914888     0.0081791063
 F     -5.3653703971    -4.8642722891     0.0076321478
          6
Energy: -17.578180806842 Kcal/mole
 H     -4.9468528715    -7.3995385834     0.4459258094
 F     -4.1015145366    -7.1107573879     0.2388086431
 H     -6.5128150694    -6.1222416976     0.4598736893
 F     -6.6491292939    -7.0068334993     0.6593850335
 H     -4.6623637181    -5.4530133035     4.689294E-40
 F     -5.3653097404    -4.8642021698     0.0080411549
          6
Energy: -17.57872641696872 Kcal/mole
 H     -4.9461920908    -7.4009323335     0.4466719986
 F     -4.1015495894    -7.1106834526     0.2387690595
 H     -6.5096750408    -6.1240617294     0.4540730034
 F     -6.6492958651    -7.0067369509     0.6596927465
 H     -4.6602203711    -5.4504384310     1.48875E-500
 F     -5.3654234400    -4.8643387609     0.0080652407
          6
Energy: -17.578710207758036 Kcal/mole
 H     -4.9439577385    -7.4108114294     0.4416333469
 F     -4.1016681167    -7.1101593894     0.2390363483
 H     -6.5076222575    -6.1235883132     0.4575413200
 F     -6.6494047605    -7.0067620645     0.6595087603
 H     -4.6588995774    -5.4488928894     0.0100503346
 F     -5.3654935051    -4.8644207483     0.0075328835
          6
Energy: -17.579500494710885 Kcal/mole
 H     -4.9458535077    -7.4059919410     0.4408324585
 F     -4.1015675505    -7.1104150521     0.2390788336
 H     -6.5091537278    -6.1236717408     0.4561128532
 F     -6.6493235196    -7.0067576389     0.6595845372
 H     -4.6585182366    -5.4484306490     0.0050690914
 F     -5.3655137343    -4.8644452691     0.0077971269
          6
Energy: -17.579366354510796 Kcal/mole
 H     -4.9472498983    -7.4034114649     0.4363192530
 F     -4.1041268854    -7.1077841880     0.2298317272
 H     -6.5123819763    -6.1220665846     0.4609496419
 F     -6.6491522685    -7.0068427887     0.6593279567
 H     -4.6617734506    -5.4522619010    -0.0024910916
 F     -5.3653410528    -4.8642420300     0.0081981771
          6
Energy: -17.57933158556517 Kcal/mole
 H     -4.9467072574    -7.4062018305     0.4345110504
 F     -4.1041556713    -7.1076361656     0.2299276482
 H     -6.5092225649    -6.1226271829     0.4606551357
 F     -6.6493198679    -7.0068130502     0.6593435796
 H     -4.6617342199    -5.4522958227     0.0040917370
 F     -5.3653431339    -4.8642402305     0.0078489733
          6
Energy: -17.579625841918528 Kcal/mole
 H     -4.9465253747    -7.4042659371     0.4380434785
 F     -4.1041653197    -7.1077388602     0.2297402610
 H     -6.5090228670    -6.1224703137     0.4614960754
 F     -6.6493304615    -7.0068213718     0.6592989697
 H     -4.6611662269    -5.4515639992    -7.184935E-40
 F     -5.3653732646    -4.8642790521     0.0081041449
          6
Energy: -17.57960964958545 Kcal/mole
 H     -4.9462125565    -7.4045993621     0.4388317467
 F     -4.1041819140    -7.1077211728     0.2296984452
 H     -6.5091200832    -6.1232646483     0.4579116548
 F     -6.6493253044    -7.0067792342     0.6594891149
 H     -4.6606658674    -5.4509692522    -3.25162E-400
 F     -5.3653998075    -4.8643106020     0.0080832796
          6
Energy: -17.579710527522707 Kcal/mole
 H     -4.9467293782    -7.4041896228     0.4373257203
 F     -4.1041544978    -7.1077429085     0.2297783365
 H     -6.5094453460    -6.1228445845     0.4595341758
 F     -6.6493080499    -7.0068015176     0.6594030439
 H     -4.6612258336    -5.4516479230     1.565846E-40
 F     -5.3653701026    -4.8642746001     0.0080577240
