          6
Energy: -17.58034990588021 Kcal/mole
 H     -4.8703050060    -7.3720999355     0.6500392401
 F     -4.0363403922    -7.0812711385     0.4034411183
 H     -6.4705200259    -6.1395663269     0.5216902157
 F     -6.5849531159    -6.9956998834     0.8296340437
 H     -4.6371546813    -5.4799728704    -0.0271489069
 F     -5.3561407581    -4.9141523360    -0.0887536487
