          6
Energy: -17.579710527522707 Kcal/mole
 H     -4.9467293782    -7.4041896228     0.4373257203
 F     -4.1041544978    -7.1077429085     0.2297783365
 H     -6.5094453460    -6.1228445845     0.4595341758
 F     -6.6493080499    -7.0068015176     0.6594030439
 H     -4.6612258336    -5.4516479230     1.565846E-40
 F     -5.3653701026    -4.8642746001     0.0080577240
