          6
Energy: -17.579549727426922 Kcal/mole
 H     -5.4481436496    -4.5551787843     4.7004275067
 F     -6.2478437805    -4.4069221631     4.2768845043
 H     -3.7071235979    -4.0211403144     3.8238752396
 F     -3.6924617446    -4.4146892475     4.6520015991
 H     -5.4550590582    -3.6847890597     2.8716408718
 F     -4.6674465002    -3.4409911721     2.4702457441
