          5
Energy: -2.885406418582822 Kcal/mole
 Kr     1.9959709491     2.8551618496    -2.6198834638
 Kr     2.5642349013     5.2721359149    -5.8355926577
 Kr     3.7531184119     6.4803042427    -2.1421422949
 Kr    -0.8640111560     3.1025313699    -5.4797674392
 Kr    -0.2082532098     6.2780512913    -3.0294605091
