          5
Energy: -0.07380488799225111 Kcal/mole
 Kr    -3.6678147833    -2.2627719707    -3.0644588577
 Kr     0.0763160798    -4.7362019507     3.4959532190
 Kr    -0.4208629712     4.6058728149    -2.1586090050
 Kr     4.5868230041     4.7895719456     4.9249896245
 Kr    -3.0656239534     4.6452409261     4.6783455315
