          5
Energy: -1.2021336808732657 Kcal/mole
 Kr    -4.3259569979    -0.1670376097    -2.6630158109
 Kr     5.3288472694     1.1922211004     0.6565886318
 Kr    -5.8630614216     0.7939433655     2.3686621701
 Kr    -2.8447276430     2.9801365925     0.2561556854
 Kr    -0.7180971454    -0.5816716457     1.3597002807
          5
Energy: -0.7064091598332125 Kcal/mole
 Kr     8.0569086773    -6.1408047934     3.2622079356
 Kr     1.2785609881     4.6625018610    -2.3138937900
 Kr    -1.7025943610    -7.6839653928     5.6356037210
 Kr    -3.0841047587     5.5100242836    -1.9411264312
 Kr     0.5745975350     6.8475734971     1.2973585101
          5
Energy: -0.8032724272733333 Kcal/mole
 Kr    -0.6912637548     5.1590951919     3.7802285237
 Kr     3.1392085236    -4.1809654768    -4.0065740321
 Kr     4.6967693810    -0.8471859073     5.2847204540
 Kr     6.5936667281     3.9489997423     3.1266804880
 Kr     3.3204947341     4.3411323576     5.2108781535
          5
Energy: -0.6524315990016197 Kcal/mole
 Kr     0.0551310657     4.9158995917     3.7598708974
 Kr     0.1635344380    -3.7350529798     3.4477974608
 Kr     5.3703806236     7.4345367129     7.2414041386
 Kr     7.7986034368     4.0659117263     5.8140050025
 Kr    -3.5066768100     3.1028678862     3.3216131861
          5
Energy: -2.131545688386009 Kcal/mole
 Kr    -1.8953813847    -1.5792777579     0.9859880507
 Kr    -5.4957266152    -0.0995730475     2.0088733995
 Kr    -2.0851424238     2.4940264687     2.9676358199
 Kr    -3.2046343843    -0.6357955013     5.0461690600
 Kr    -6.7206824618     3.1969140844     0.1028596282
          5
Energy: -2.3953399433525386 Kcal/mole
 Kr     0.6706309360     1.0903035138     4.9820617435
 Kr    -2.3921008265     3.1200098150     2.7093022928
 Kr     1.3469434784     2.6848957547     1.4335711462
 Kr    -3.0619660775     0.0401525600     4.9992016153
 Kr    -1.0332819253    -1.5372792332     1.6169696087
          5
Energy: -2.6536381516949654 Kcal/mole
 Kr    -0.1820028478     2.9239845730     1.1438150596
 Kr    -3.0454041765     0.3169535000     1.9538350447
 Kr     3.0555902569     1.9883946569    -0.7970290987
 Kr    -0.9835746961     0.3026107292    -1.7890914855
 Kr     0.8685394575    -1.2146732567     1.4375484753
          5
Energy: -2.662607934986931 Kcal/mole
 Kr     2.1489466691    -3.1254809087     4.4455369775
 Kr     0.5077693188    -7.7279363587    -0.1920582864
 Kr     2.0960748677    -7.3463581246     3.6763306929
 Kr     2.6122922542    -4.5881587957     0.4163449628
 Kr    -1.1222187033    -4.7376645841     2.2507452518
          5
Energy: -2.7154839830962567 Kcal/mole
 Kr     0.7708469166    -6.6694474536     7.8133941145
 Kr    -5.1063229897    -6.8987400225     4.4516880474
 Kr    -1.1021329721    -7.6834211722     4.1071615369
 Kr    -2.6555212764    -4.1596412194     5.9685249983
 Kr    -3.1253093443    -7.9488733667     7.7563440884
          5
Energy: -2.885437723836331 Kcal/mole
 Kr     0.6576966439    -6.4815960012     7.5996380631
 Kr    -5.0669343708    -6.8459843091     4.2910445957
 Kr    -1.0611765650    -7.5457909954     4.0935882025
 Kr    -2.4713285533    -4.3345651244     6.1489303715
 Kr    -3.0615169831    -8.0839635518     7.6093848101
