          2
Energy: -0.00127868753132559 Kcal/mole
 Ar    -3.5717896014    -6.0970295530     5.8365194365
 Ar    -6.5312379173    -6.2832782232    -3.9301788725
          2
Energy: -0.004280453210037641 Kcal/mole
 Ar     3.6664103072    -5.9113394732     4.2600616576
 Ar     4.4822083869    -7.2755639040    -3.9278533230
          2
Energy: -0.014914187001204537 Kcal/mole
 Ar     4.9465059839    -0.2043991445    -6.8714216258
 Ar     5.6162332959    -6.9265991587    -6.6001905490
          2
Energy: -6.191872068674094E-4 Kcal/mole
 Ar     7.1070078189     4.8859728066    -2.6696255439
 Ar    -2.4460705450    -0.7183230758     0.4976021175
          2
Energy: -0.00455437571351446 Kcal/mole
 Ar     5.4436149398    -7.2336984926    -2.1712555597
 Ar    -1.9733029116    -6.4238042987    -5.7027671529
          2
Energy: -3.3915438852199776E-4 Kcal/mole
 Ar     4.8171165746    -5.1054085967    -7.3587554866
 Ar     7.1677008022     4.9128701414     0.1453530989
          2
Energy: -0.0024769910072840687 Kcal/mole
 Ar    -3.8835693320    -2.3025861876     4.7697601170
 Ar    -0.6973070539     6.0552467751     6.6492001670
          2
Energy: -6.630995939107387E-4 Kcal/mole
 Ar     4.2507343967     6.2878714057    -4.4345415055
 Ar    -1.4176849187    -0.1067330234     3.0940947986
          2
Energy: -0.22042690875080895 Kcal/mole
 Ar    -5.0199584541     2.4277711809    -2.7715546792
 Ar    -1.4910053258     3.4920534932    -1.2278243152
          2
Energy: -0.2339000000751403 Kcal/mole
 Ar    -4.6579482725     2.4084675906    -2.9403293183
 Ar    -1.1702847876     3.0453778841    -1.5247427552
