          2
Energy: -1.9413700730352222E-4 Kcal/mole
 Ar    -6.3032736217     2.5445246451     3.0374846953
 Ar     4.8771971130    -0.3359564757    -4.8405601053
          2
Energy: -1.2341900390638958E-4 Kcal/mole
 Ar     5.7277566058     4.4013266106    -3.9960385597
 Ar    -3.2969932535    -6.7231932718     0.6954859356
          2
Energy: -0.003164246073699314 Kcal/mole
 Ar    -2.1124098851    -1.8122093278     2.6042425394
 Ar    -3.3436673907     6.6852586918     0.8019763009
          2
Energy: -0.2010437806215364 Kcal/mole
 Ar    -1.9409042464    -1.3176916709    -4.5633075891
 Ar    -4.3018612849    -4.6723722649    -4.0994976394
          2
Energy: -4.281290156835623E-5 Kcal/mole
 Ar     4.8804732025     5.0827850701    -0.4305276921
 Ar    -6.9614720066    -6.4015652523     6.7288743754
          2
Energy: -7.878387876376231E-4 Kcal/mole
 Ar     3.5487618502     2.8271703557    -2.7121772512
 Ar     1.2795355328    -4.1019682093     5.6120260288
          2
Energy: -0.1422002774581076 Kcal/mole
 Ar    -4.8019028841     5.6073423651    -7.4129642908
 Ar    -7.4066751921     2.7792668046    -5.0791548577
          2
Energy: -0.22721714901693857 Kcal/mole
 Ar     5.7577313150     7.1373805986    -4.0522039934
 Ar     3.5023746097     3.9709969939    -4.6754605969
          2
Energy: -0.21014571436188223 Kcal/mole
 Ar    -4.9768259394     0.7002599236     2.0380316266
 Ar    -2.1079406105    -1.0902283381     4.3019673139
          2
Energy: -0.23390000010045003 Kcal/mole
 Ar    -5.4116529945     0.4652135765     2.7936361154
 Ar    -2.2887190978    -1.0193971620     4.4112064035
