          6
Energy: -0.12353452304614211 Kcal/mole
 Xe    -5.3637398339     1.5563828818    -1.8937166680
 Xe    -6.1378644423    -5.5736677139    -5.9122399218
 Xe     2.9799884770    -2.7646187195     0.5900197082
 Xe    -2.3888672978     3.7080762465     6.4429805255
 Xe     5.5954413396     0.9518175229    -6.2472715405
 Xe     3.9482509979     5.7183398862     1.8287951787
