          6
Energy: -0.09955038549993074 Kcal/mole
 Xe    -0.3923174864     8.3265417021     1.1575264075
 Xe     8.5898056570    -0.8411376094     6.9786644979
 Xe     7.4642695752     4.1723573914    -8.3169013770
 Xe     7.2042278341    -3.3095614722    -4.7944665611
 Xe    -0.1389412169    -5.3437986167    -4.0971945797
 Xe     1.4923968655    -3.4967546269     5.7882510069
          6
Energy: -3.068513428268159 Kcal/mole
 Xe     6.6043688621    -3.4050981972     2.3318853799
 Xe     3.5764366823     8.0132754572     1.0056001727
 Xe     6.4480678831     5.6416858462    -1.6152638746
 Xe     4.1147916638     3.5876755874     2.3639588910
 Xe     2.0001884868     4.5326745078    -2.2408537339
 Xe     8.0891968023     2.3741941372     1.7600099403
          6
Energy: -3.1140495258149903 Kcal/mole
 Xe    -3.4079877088    -9.2520273645     1.7811407470
 Xe    -3.2327095623    -4.2586924297     1.5519658102
 Xe    -0.9087637701    -1.3170067859     5.1637090917
 Xe    -0.3887645902    -0.6669903978    -0.0085427514
 Xe    -2.6559489279    -3.8638722720    -2.7017752189
 Xe    -4.7198204851    -0.6369684930     0.6778617693
          6
Energy: -3.7528710657584394 Kcal/mole
 Xe     1.0264872913    -7.1666302021    -6.2010842957
 Xe    -3.0816344420    -1.5340869575    -4.6313605398
 Xe     3.8939752625    -5.4227234133    -3.7034575058
 Xe     1.2045951875    -2.5274172111    -6.3497303038
 Xe     2.3831100553    -8.3565193689    -0.5306658744
 Xe    -0.2432052310    -4.9705183923    -1.7212497490
          6
Energy: -3.155132562737676 Kcal/mole
 Xe    -2.5271010072    -3.4075628414    -6.1261121855
 Xe    -0.1536749111    -6.5686294121    -4.0015232996
 Xe     0.2251215944    -2.4248435025    -1.5658470382
 Xe    -4.7144452492     1.0816357325    -1.1901906878
 Xe    -3.3053307849    -4.5868565929    -0.2457887048
 Xe    -6.8603350045    -2.9068618725    -2.7974528967
          6
Energy: -4.4016277864592 Kcal/mole
 Xe    -0.9200863113    -6.6980712672    -4.5509900117
 Xe    -2.5494752151    -6.5867306635     1.9308463477
 Xe    -0.6756095952    -9.4660026836    -1.1490369863
 Xe     0.5073580756    -5.2556367317    -0.3204827276
 Xe    -5.0943727484    -7.4380198468    -1.4676170641
 Xe    -3.3569719497    -3.1519899368    -2.4212375145
          6
Energy: -4.89714414412997 Kcal/mole
 Xe    -4.5631933375    -3.6199790601    -4.5837917653
 Xe    -0.3258542047    -4.9947515152    -4.8891842374
 Xe    -3.8505224339    -7.0438409066    -7.5189169611
 Xe    -1.5713871178    -0.6108359584    -4.9444788720
 Xe    -3.2756791656    -6.8659855953    -2.1989720445
 Xe    -2.0172232502    -2.8927381111    -1.1704669217
          6
Energy: -5.146397859441809 Kcal/mole
 Xe    -5.0619235998    -3.6259792440    -1.8100811531
 Xe     0.2163889734    -3.9241875861    -5.3391104870
 Xe    -3.5494881834    -5.9406530901    -5.5619498600
 Xe    -3.9672940854    -1.3706104541    -5.1758907121
 Xe    -1.2004151941    -5.5653254401    -1.6217440868
 Xe    -1.2713955539    -1.1371856637    -1.8565897872
          6
Energy: -5.362200106119371 Kcal/mole
 Xe    -3.6080920479    -1.9711645351    -4.9363812337
 Xe    -1.3098808860     2.6995501860    -7.8047658111
 Xe    -3.2983706643    -1.0636278371    -9.1304445822
 Xe    -5.4143192482     1.7137580182    -6.4220659850
 Xe     0.3949705903    -1.1725321871    -6.4503863099
 Xe    -1.8017952684     1.5151909831    -3.5800454151
          6
Energy: -5.503072719202683 Kcal/mole
 Xe    -3.5275773256    -2.3269040104    -4.8272277308
 Xe    -1.3389500622     2.6825101021    -7.7817042464
 Xe    -3.2435472249    -1.0661753780    -9.0507957725
 Xe    -5.2155795568     1.5225973901    -6.0700218491
 Xe     0.3713085102    -1.1692570993    -6.5391850257
 Xe    -1.5830890115     1.4131487209    -3.5684390809
