          6
Energy: -5.502737024815911 Kcal/mole
 Xe     1.0740561385    -2.8310036600     4.7592791744
 Xe     3.9163052698    -2.4254995501     1.4440131569
 Xe     4.5959305149    -0.2178634913     5.1792664972
 Xe     3.3943756953     1.9408175263     1.5248918333
 Xe     0.5573798025     1.5456085047     4.8506047950
 Xe    -0.1302975494    -0.6850750303     1.1299790362
