          6
Energy: -5.503457349593022 Kcal/mole
 Xe    -0.3650150804     4.2184600886    -1.3291697461
 Xe    -4.4160916514     2.6293363902    -0.6534326674
 Xe    -1.3451634602     0.1106945589    -2.5289782464
 Xe    -2.7185455627    -0.7715510402     1.5509730813
 Xe     1.3290922206     0.8002863369     0.8711736282
 Xe    -1.7328485963     3.3268422890     2.7438679410
