          6
Energy: -0.7796714620440349 Kcal/mole
 Xe     0.5602894681    -7.4680185699    -7.4772144025
 Xe    -6.1002130575     0.6981421548    -0.6003092945
 Xe    -7.2057988567    -5.1413693825    -9.1343074135
 Xe    -2.7451544319     0.8584528203    -5.0551051537
 Xe    -2.1812001644     6.5074960066     3.5636861910
 Xe     1.0395590059    -1.3632728365    -4.1350175418
          6
Energy: -3.0732664660948954 Kcal/mole
 Xe    -3.4979662410    -0.0155864706    -8.9896598913
 Xe     2.1313779492    -8.6540004571    -4.3354035418
 Xe    -4.5569147836     3.5290608665    -6.6752984249
 Xe     1.9837407499    -2.0354195516    -4.4882819557
 Xe    -0.4222749278     1.9802537225    -6.3590113709
 Xe    -2.5998401265    -1.0024539483    -4.5243398612
          6
Energy: -0.5024994461371397 Kcal/mole
 Xe     8.4764058596    -2.8804572696    -8.3386944838
 Xe     4.3723404163    -8.2907660661    -7.3592957013
 Xe    -2.9733313641     0.4684737437     5.1474685863
 Xe    -8.2786819981     9.0310923641     1.6339777012
 Xe     6.7456383082    -6.5154347099    -3.4413470312
 Xe     4.8755547012    -9.0119522704     6.6767372434
          6
Energy: -2.0279416683346514 Kcal/mole
 Xe     2.5588505488     4.6734131238    -7.8536743867
 Xe    -1.5372015990    -9.3578914882     5.1479985284
 Xe     8.1957559397     5.9877275646    -8.2159750744
 Xe     4.3866686043     8.4879645524    -9.1577347755
 Xe     3.3228968267     8.0377872544    -4.9714361570
 Xe    -3.2321754021    -3.7187302978     2.2428329583
          6
Energy: -1.150764394276144 Kcal/mole
 Xe     0.0943735605    -0.5027106644     5.9025212743
 Xe     8.3887463601    -8.9327925048     3.0176708264
 Xe    -3.5918794636     3.6050452271     8.5122441999
 Xe    -3.9062488375    -0.0320924104     5.2493095191
 Xe    -3.6471509628     4.3758627078     4.7478416817
 Xe    -4.7582134602    -5.8948476147     5.3233357587
          6
Energy: -3.5483123840872186 Kcal/mole
 Xe    -6.9498299455    -2.4210431922     5.7451640244
 Xe    -2.7483544646    -1.8476887751     5.7032521630
 Xe     8.1644619327    -4.7272419347     8.6430561891
 Xe    -8.4808368646     0.2537869526     2.5471714513
 Xe    -4.5649908584     1.5407967996     3.8011637626
 Xe    -4.8106039628    -2.5920089904     2.1980586627
          6
Energy: -4.669805514378567 Kcal/mole
 Xe    -1.4464384917    -3.6238209962     3.1562002326
 Xe     2.6078302630    -3.9765333386     4.2544785438
 Xe    -0.0075417582    -0.2175649749     5.3864990042
 Xe    -0.6563520822     3.5771941959     2.6778139204
 Xe    -3.2947586870     0.2349980607     1.4740264112
 Xe     0.7531500585    -0.5901095429     0.8657551814
          6
Energy: -5.195594545071986 Kcal/mole
 Xe     1.9175304180    -3.0591776620     4.0117358259
 Xe     5.9953510425    -3.1717440493     1.9967383299
 Xe     3.8703978348     0.4974468435     2.7232291638
 Xe     3.6348899475    -1.1664884698    -1.2949773734
 Xe    -0.3754995342    -0.9990585469     0.6908244863
 Xe     2.4014924214    -5.0057663183     0.0840012050
          6
Energy: -5.310577222466382 Kcal/mole
 Xe     0.9507994219    -2.9638607750     4.4761521610
 Xe     3.8780399744    -2.5750546989     1.2418379346
 Xe     4.7323089064    -0.3255757783     5.1149659526
 Xe     3.2108496081     2.0635554525     1.7252970669
 Xe     0.4521739983     1.2611078054     5.1977171085
 Xe    -0.1738325410    -0.6377975587     0.9814618691
          6
Energy: -5.502737024815911 Kcal/mole
 Xe     1.0740561385    -2.8310036600     4.7592791744
 Xe     3.9163052698    -2.4254995501     1.4440131569
 Xe     4.5959305149    -0.2178634913     5.1792664972
 Xe     3.3943756953     1.9408175263     1.5248918333
 Xe     0.5573798025     1.5456085047     4.8506047950
 Xe    -0.1302975494    -0.6850750303     1.1299790362
