          6
Energy: -1.946267419110505 Kcal/mole
 Xe     3.0184965102    -0.6058142826    -8.6790436793
 Xe     3.0343611983    -2.6278434878     3.9611074726
 Xe    -4.6743868959     2.8402657329    -7.1966666401
 Xe    -3.9028686977    -1.5026370593    -6.2672307563
 Xe     1.6220809834    -3.4793484300    -2.9650370276
 Xe    -0.6581696295     1.2873675505    -5.6328933007
          6
Energy: -4.653953942800501 Kcal/mole
 Xe    -5.9701810996     2.1163220712    -6.0334734394
 Xe    -1.6457865450     1.9200472753    -5.4549065579
 Xe    -3.8046261150    -1.0096955253    -8.6884956432
 Xe    -3.8963171383     3.5558692236    -9.6346956800
 Xe    -3.0798951957    -2.2854081923    -4.7146955110
 Xe     0.1458975214    -1.3206171972    -7.3886345509
          6
Energy: -4.378766936124943 Kcal/mole
 Xe    -4.6079133916     0.5937514836     0.6155735740
 Xe    -4.9285056108    -3.6510348655    -5.6967114262
 Xe    -5.1365227216     0.5642301987    -4.1470764652
 Xe    -5.8591999956    -3.0398789263    -1.2552812281
 Xe    -8.7891878485    -0.0565226023    -0.1433266116
 Xe    -1.6890225597    -2.7119862277    -1.7880313397
          6
Energy: -4.742727630406198 Kcal/mole
 Xe    -4.8837603234    -1.1383820306     3.6772025027
 Xe    -1.9396601712    -3.4733432621     1.6376328648
 Xe    -6.3473945035    -3.7585556913    -0.2021345482
 Xe    -2.1129775691    -3.1340783670     5.8807400177
 Xe    -6.1483470012    -2.4630513894     7.3904600767
 Xe    -5.2607448565    -5.3429740938     3.8191542568
          6
Energy: -4.545409641992288 Kcal/mole
 Xe    -8.1142968559     0.6124664221     0.3697295047
 Xe    -3.9836774993     0.6368156309     0.2162168941
 Xe    -8.5632322798    -1.5079765590    -3.3033591412
 Xe    -5.7064979557    -2.8990493393     3.3973187264
 Xe    -9.2807564028    -3.2489044527     0.5864957699
 Xe    -5.3916913683    -3.3175987423    -0.8960899986
          6
Energy: -4.802637763011061 Kcal/mole
 Xe    -9.5607891610     0.4443084354    -0.6626267179
 Xe    -4.4221076166     0.7918700843     0.4527383741
 Xe    -5.9301380861    -0.2512056780    -3.5939132021
 Xe    -6.8844768406    -2.0620649859     2.7967310208
 Xe    -7.9762387932    -3.3507208029    -1.3775839860
 Xe    -3.4696930619    -3.2483999130    -0.8198434679
          6
Energy: -5.206723019131367 Kcal/mole
 Xe    -7.7232642535    -1.2664881851     1.0463701338
 Xe    -3.7314603444    -2.1412867627    -1.5975342568
 Xe    -7.3621182177    -4.4001322461    -2.4874103674
 Xe    -4.4419051841    -3.5349450806     2.8952707163
 Xe    -8.0119943182    -5.6419101847     1.8231320520
 Xe    -4.2417882426    -6.3288975818    -0.2930951059
          6
Energy: -5.024921106583665 Kcal/mole
 Xe    -2.0496039830    -2.5289195624    -1.0730121213
 Xe    -0.4019516672    -6.6926838788     0.6721769109
 Xe    -3.3485394945    -6.6238870072    -2.4738279584
 Xe    -3.6086068711    -4.7357468444     2.8571130920
 Xe    -6.0714192869    -3.6055142804    -0.5895674454
 Xe    -5.7296343391    -7.9321224448     0.9484967970
          6
Energy: -5.397683922774404 Kcal/mole
 Xe    -0.8529094111    -2.8673433816    -0.3778647241
 Xe    -3.0876281132    -6.5996557206    -0.7715227981
 Xe    -5.2291601769    -2.7007686945    -0.7182401803
 Xe    -0.8777522552    -5.7120914498     3.0734983705
 Xe    -3.1339280515    -1.9221821577     3.3395851684
 Xe    -5.4706362127    -5.4383006421     2.7878373562
          6
Energy: -5.5031651121714855 Kcal/mole
 Xe    -0.7031599816    -2.7218255583    -0.2513379305
 Xe    -2.9527134240    -6.4565209879    -0.6865873856
 Xe    -5.0777269127    -2.5962531023    -0.6097108670
 Xe    -1.0750674562    -5.4887491619     3.1463396881
 Xe    -3.1875460863    -1.6446642484     3.2321992383
 Xe    -5.4551896630    -5.3912287515     2.7714417162
