          6
Energy: -5.503072719202683 Kcal/mole
 Xe    -3.5275773256    -2.3269040104    -4.8272277308
 Xe    -1.3389500622     2.6825101021    -7.7817042464
 Xe    -3.2435472249    -1.0661753780    -9.0507957725
 Xe    -5.2155795568     1.5225973901    -6.0700218491
 Xe     0.3713085102    -1.1692570993    -6.5391850257
 Xe    -1.5830890115     1.4131487209    -3.5684390809
