          14
Energy: -49.36848192286716 Kcal/mole
 H      1.0772536485     4.6532135624    -1.3566204851
 F      1.6354378459     4.9224048320    -2.0325313240
 H      0.6923674252     4.7971890384    -3.3877725137
 F      0.0732652533     4.6040420763    -4.0360747208
 H     -2.6904064767     1.4578068761    -0.6368470095
 F     -2.3864246222     1.0119400410     0.1045616481
 H     -2.2178428599     2.3225197027    -2.5336168509
 F     -2.9868508227     2.3121154472    -2.0342096977
 H     -0.7624446753     1.3081561567     0.3051553049
 F      0.1099062276     1.5904968459     0.3184458052
 H      0.0325071013     3.1857721111    -0.0770301042
 F     -0.1104783341     4.0490895127    -0.3511235727
 H     -0.4621757925     3.1089693948    -3.6080147137
 F     -0.7128379933     2.3036839529    -3.2480524683
