          14
Energy: -49.363268425689384 Kcal/mole
 H      1.4952501362     3.9982685530    -1.4049745857
 F      2.1104262453     3.9788703752    -2.0847326791
 H      1.1991047981     3.7715759926    -3.4474569182
 F      0.5719170563     3.5742909166    -4.0866776433
 H     -2.9380327103     1.8607978738    -0.4333552527
 F     -2.7821286552     1.5647235869     0.4204145887
 H     -2.1643772822     2.1283240258    -2.4036753693
 F     -2.9553441307     2.3823349533    -2.0154242995
 H     -1.1499682527     1.5816536194     0.7296897102
 F     -0.2393468761     1.6762019284     0.7818272748
 H      0.0992226654     3.1285857552     0.0829476911
 F      0.1919492442     3.9241395361    -0.3635777430
 H     -0.2353290366     2.3267886301    -3.4017116684
 F     -0.6438841563     1.6781019040    -2.8985444541
