          14
Energy: -0.1797574879545465 Kcal/mole
 H      0.9691778830     1.3861917759    -1.3353583585
 F      1.7205718141     0.8605529643    -1.3353583585
 H      3.0837623713    -2.1102335614     0.0627631881
 F      3.4527812049    -2.9497060746     0.0627631881
 H     -3.0263772660    -2.2159588600    -1.5114042427
 F     -3.4318461811    -1.3934724110    -1.5114042427
 H     -1.8467263318     3.9995443279    -1.1236173062
 F     -2.2752870979     3.9995443279    -1.9343112495
 H     -2.8458954523     1.6708443686     2.7106829316
 F     -3.6546446826     1.6708443686     2.2784634475
 H      1.2037416683    -3.9552090232     4.5693384125
 F      2.0095724001    -3.5175723796     4.5693384125
 H      4.5548107945    -1.1661208895    -4.7815430658
 F      5.4526268358    -1.1661208895    -4.5949543307
