          14
Energy: -49.3106548009026 Kcal/mole
 H      1.6075456348     4.7805132948    -0.5100435468
 F      1.9792916358     5.0233021108    -1.3123823166
 H      0.7617344171     5.2911089515    -2.4044908491
 F      0.0194997155     5.3192196747    -2.9422514231
 H     -2.8633644553     2.2758092338    -0.2029247118
 F     -2.5908584331     1.9414969339     0.6063124314
 H     -2.3337716998     2.8885648958    -2.1881521449
 F     -3.1159111453     2.9124490138    -1.7100554636
 H     -0.9410236686     1.8132500689     0.6022277750
 F     -0.0288310609     1.8363064575     0.5113319586
 H      0.5169911413     3.3805039562     0.7620685272
 F      0.7539643589     4.2641437210     0.8246261823
 H     -0.5354852450     3.7623213497    -2.9681140218
 F     -0.8194815409     2.8976450416    -2.8559980719
