          14
Energy: -49.367202620255185 Kcal/mole
 H      1.0719827773     4.6348720419    -1.3442922500
 F      1.6239767599     4.8954786735    -2.0285990722
 H      0.6603581838     4.7987311067    -3.3773922603
 F      0.0316982895     4.6147665950    -4.0191342613
 H     -2.7039725560     1.4751716769    -0.6138997734
 F     -2.4104936296     1.0281364501     0.1310288310
 H     -2.2150176512     2.3277389802    -2.5080397733
 F     -2.9850334676     2.3278534075    -2.0100793037
 H     -0.7961407854     1.3294764504     0.3695817791
 F      0.0762723293     1.6098817676     0.4035996493
 H      0.0215491119     3.1968060356    -0.0230056679
 F     -0.1103197536     4.0556395664    -0.3161004798
 H     -0.4764156177     3.1094205105    -3.5924637571
 F     -0.7124685844     2.3016620761    -3.2281914572
