          14
Energy: -49.28721340326234 Kcal/mole
 H      3.3245262640    -0.7118220171    -0.6439479082
 F      3.7317937794    -1.1210086766    -1.3564003267
 H      3.6762816088    -0.1149713718    -2.6779592547
 F      3.6994074752     0.5171023872    -3.3419147935
 H      5.3601755749     3.4356776501    -1.3360066793
 F      4.5884490458     3.5502991416    -0.8541466604
 H      6.5678221394     2.3652270724    -2.8172376076
 F      6.7162764578     3.0324164666    -2.2059204824
 H      4.5907627588     2.5321625700     0.4478487085
 F      4.5955287358     1.8801893478     1.0926720975
 H      3.3484871409     0.8174217151     0.8448554702
 F      2.6994085089     0.2257376340     0.5812347620
 H      5.2636428945     0.8852752608    -3.7276590477
 F      6.1440672661     1.1211158792    -3.8282628676
