          14
Energy: -49.37106011497016 Kcal/mole
 H      1.0897031610     4.6405429472    -1.3540923056
 F      1.6432654346     4.9009634121    -2.0372020996
 H      0.6917303765     4.7886233414    -3.3898057203
 F      0.0692462606     4.6025009344    -4.0369231556
 H     -2.6757730738     1.4696211465    -0.6449247178
 F     -2.3671941414     1.0154299980     0.0894991673
 H     -2.2213076790     2.3356058900    -2.5348772974
 F     -2.9864692997     2.3341670565    -2.0294916784
 H     -0.7483949146     1.3184646201     0.3205848217
 F      0.1228824897     1.6023739059     0.3546465629
 H      0.0504596830     3.1925828212    -0.0461174965
 F     -0.0892129723     4.0542983766    -0.3268786959
 H     -0.4685634155     3.1069306039    -3.6144019992
 F     -0.7219924750     2.3014794829    -3.2567552412
