          14
Energy: -49.35201787032452 Kcal/mole
 H     -1.2444199200     3.5113361280    -0.0840783667
 F     -1.1290087588     2.6521766273    -0.3831004665
 H     -0.5755748861     2.4804455783    -1.9526813856
 F     -0.4219159932     2.3836339647    -2.8515169969
 H     -4.5341343225     2.9856298001    -0.8457269691
 F     -4.8125209337     2.7097399658    -0.0167066472
 H     -3.5539203457     2.9326669666    -2.8199800619
 F     -3.8775535970     3.5773953720    -2.2538742398
 H     -4.2549389741     3.7668147158     1.1523823962
 F     -3.8459130147     4.3831315462     1.6943605592
 H     -2.4254960422     4.8572329344     0.9761036383
 F     -1.6629404961     4.9973890041     0.4864565049
 H     -1.8805132760     1.9483910790    -3.4983008754
 F     -2.7593711659     1.7904930696    -3.7070256412
