          14
Energy: -49.36667240805885 Kcal/mole
 H      1.1082417844     4.6020212366    -1.3677005216
 F      1.6739641547     4.8569254424    -2.0428827530
 H      0.7549059933     4.7225971159    -3.4183911410
 F      0.1478049999     4.5221105730    -4.0757514150
 H     -2.7046245570     1.4503440962    -0.6902254587
 F     -2.4118278392     1.0084400935     0.0580257922
 H     -2.2006588481     2.2939930998    -2.5702612213
 F     -2.9857160857     2.2922216264    -2.0963719984
 H     -0.8011250903     1.3235276944     0.3485690726
 F      0.0684189099     1.6071890879     0.4142839543
 H      0.0297988894     3.1810175228    -0.0459088695
 F     -0.0921310049     4.0352560669    -0.3562290439
 H     -0.4057763785     3.0443703253    -3.6083079259
 F     -0.6671524197     2.2539339992    -3.2238837078
