          6
Energy: -0.0616241943724886 Kcal/mole
 Ar    -4.0632906321     6.0030973220     2.2904692570
 Ar     4.5957063710     1.8580572276    -1.3173679331
 Ar     2.1797147145    -4.5192038082     1.2970815153
 Ar    -2.1466013179     1.9258189287    -3.4316799011
 Ar    -4.9771335092    -4.4699664063     3.0912542114
 Ar     1.8363382843    -5.6432217945    -6.0075550915
