          6
Energy: -0.16609280014510192 Kcal/mole
 Ar     5.1304895278     0.5652267788     8.0944641787
 Ar    -5.3571792019    -7.7049046494     4.9468678382
 Ar     8.9043663076    -4.9098972734    -8.8150504219
 Ar    -2.8748227852     4.4803284409     8.9945968299
 Ar     2.9531486842     7.4309984372     0.6246054642
 Ar     6.9455022741     5.5974002382     0.4880289918
          6
Energy: -0.1778906893513656 Kcal/mole
 Ar     1.9093558684     6.5097676168    -2.3911979843
 Ar    -1.4385394742     2.1899876969    -8.5848679438
 Ar     0.7802009608     0.4343843500     5.3422492427
 Ar    -1.4646130438    -1.6125291288     7.1167154725
 Ar    -6.4867660689    -0.1367881736    -5.9636789104
 Ar     4.0278043987    -5.2605614658    -2.4833445019
          6
Energy: -0.4131324932538787 Kcal/mole
 Ar     7.6871684994     0.0883548310    -3.6975875122
 Ar    -0.1105711831     0.4084506874     7.5400109019
 Ar    -6.8953665540    -5.1780782776     1.2561882878
 Ar    -3.8211987045    -6.3634280104    -1.4591939541
 Ar    -0.0973635647     7.4211052172     3.4466642051
 Ar    -1.2368110908    -2.4259329668     5.5175690182
          6
Energy: -0.005990779259604978 Kcal/mole
 Ar    -2.3325557549     8.4629867157    -3.1910079075
 Ar     9.4020074373     9.8731138656     0.9850540296
 Ar    -7.2415911700    -1.4204902188    -4.1553062866
 Ar     7.6869606577    -5.0714931782    -9.1772771460
 Ar     3.9485399335     8.0805919152     7.8333473849
 Ar    -0.2642469484    -8.3738884805     0.0444975103
          6
Energy: -0.06368977302351318 Kcal/mole
 Ar    -0.7225196767     8.0524566557     6.5681609964
 Ar     4.8292400039    -5.9635180029    -8.0624647619
 Ar    -6.0340907765     7.0621959851    -9.4962967892
 Ar    -8.6628465844    -0.3355492756    -9.1430649750
 Ar    -9.2884844164    -4.1172717955     6.9834216210
 Ar     3.5074877348     6.1782983643     3.8528116714
          6
Energy: -0.48230060184189605 Kcal/mole
 Ar    -9.4025757494     1.2676837180    -0.0620813104
 Ar    -9.0603869487    -6.9303061981     0.0965586127
 Ar    -1.5056891903     6.5940344872    -6.6871765588
 Ar    -3.3582924540    -9.5506130477     9.4610310235
 Ar    -8.9405637794    -2.5297549948     0.3097141972
 Ar    -3.7713865255     2.1386033273    -5.9362736995
          6
Energy: -0.8894889393153251 Kcal/mole
 Ar    -7.4223655193     7.1182750520    -3.0766236634
 Ar    -4.2532878370     7.7681801073     0.5231310620
 Ar    -6.8576058885     3.1059986326    -4.1289821696
 Ar    -7.0009341343     4.3315334343    -0.6435475151
 Ar     1.8002688816    -8.5691896747    -8.3253505888
 Ar    -8.5913280066    -9.4614352901    -5.7369406525
          6
Energy: -1.759250558987161 Kcal/mole
 Ar     1.6409441656     4.4024644153     2.2054910172
 Ar    -2.4811296596     2.7870938425     3.4472796568
 Ar     1.0593286333     0.0752749805    -1.3412932573
 Ar     4.6567073407     1.7358771871     0.9198414623
 Ar    -1.1684642921     3.0700614343    -0.3802768559
 Ar    -2.7895537534    -0.1904341482    -0.2323163391
          6
Energy: -2.6904340042099353 Kcal/mole
 Ar     1.5545816473     6.8931084418     0.3211576528
 Ar    -1.4577063849     6.0518979890    -2.1351568116
 Ar     0.3412298973     3.2118672151     0.0474508200
 Ar     2.0001286738     5.0408378109    -2.7450886029
 Ar     0.9753602462     8.5812731351    -3.4776948025
 Ar    -0.3139769474     5.3799304624    -5.7709076207
          6
Energy: -2.8769751698303505 Kcal/mole
 Ar     1.4018139222     7.0493788900     0.1537909486
 Ar    -1.4765638525     5.9457590758    -2.0615953983
 Ar     0.3271162672     3.4029729995     0.0994101438
 Ar     2.1093828102     4.8919527949    -2.9080463813
 Ar     1.0460183048     8.5249700851    -3.3471584793
 Ar    -0.3135353363     5.8217819039    -5.6814374786
