          6
Energy: -2.876750720456117 Kcal/mole
 Ar     4.8326543459     9.4218927396    -4.2911170946
 Ar     1.8896606196     7.4129444665    -2.8921478139
 Ar     3.5791317558     6.3159976690    -6.1020092624
 Ar     1.4225970883     9.5075567746    -6.0138051462
 Ar     1.5799617436     7.3680993152    -9.1714659494
 Ar     4.6013027149     9.4035227776    -8.0855768760
