          6
Energy: -0.03428706990955651 Kcal/mole
 Ar     8.2787805372    -4.8379427093    -3.1788237472
 Ar     2.3982552826    -8.4081080160     3.4404595229
 Ar    -4.6221012912     7.3693322824     2.8565541502
 Ar     2.9007611694    -7.9777140338    -9.1207128183
 Ar     1.3007991898    -4.1325982924     7.6935062141
 Ar    -9.0372038081    -8.8996734042     5.8234345848
          6
Energy: -0.35668703318216505 Kcal/mole
 Ar    -4.4830206726     5.4906710098    -3.3030918902
 Ar    -6.2665462673     1.2778436172    -0.9720233384
 Ar     4.4796140732    -6.1644321544    -1.6808678674
 Ar     5.6689718572     7.0781824581    -0.5411503342
 Ar    -2.5131116959     0.0837878265    -3.7050154305
 Ar     2.7225632083    -1.6462525228    -2.6205291954
          6
Energy: -0.10627718708466176 Kcal/mole
 Ar    -8.0530732130     4.4974513004    -8.2700503066
 Ar     9.6917649432    -1.4327502644     7.7560651855
 Ar    -0.5111020066    -2.3330070921     3.6664356479
 Ar     8.8819998160     9.6003320411     4.5008906128
 Ar     2.5561920084    -5.2374631212     1.1646622467
 Ar    -3.6773627723     8.5203993379    -4.3516063913
          6
Energy: -0.013877819179763532 Kcal/mole
 Ar    -1.3720027506    -4.4069451432    -0.0417277661
 Ar    -3.0604648461    -5.8755174745     9.8363790663
 Ar     6.0714138586    -4.7324547833     1.9639924660
 Ar     7.0966109169     3.5887749612    -7.3765392909
 Ar    -2.8035989897     7.3985356601     7.4507443954
 Ar     2.4811684420    -6.0597327205    -8.2986671306
          6
Energy: -0.6521867297259932 Kcal/mole
 Ar    -1.5972069479     6.2823081681    -5.3527335245
 Ar    -7.7053136688    -5.3795364498     4.4572351035
 Ar    -2.6697242551    -3.7773028976    -1.1292140652
 Ar    -4.5811823485    -3.7582372376    -4.3366600600
 Ar    -7.4976241027     1.5043868350     5.4905483963
 Ar    -5.7195651470    -0.9402177543    -1.4065372277
          6
Energy: -1.244113374679212 Kcal/mole
 Ar     8.3873280210     2.4461290685     8.3221108525
 Ar     2.8724788666     7.4700725526     4.8289341740
 Ar    -7.5598450516     4.3146698792    -8.5253958282
 Ar     5.3026223038     5.3690705854     7.5187320486
 Ar     8.5766508411     6.1953466143     9.3175843436
 Ar     5.7081549522     5.5252370471     3.0501497209
          6
Energy: -2.5574477957514006 Kcal/mole
 Ar     6.1519755327     5.0729275374     4.9771685923
 Ar     9.2334949114     2.5897228797     3.0596006422
 Ar     6.6540957269     4.8380389431     1.1336863790
 Ar     9.8291046515     6.0331832672     4.7572947690
 Ar     6.6647492449     8.4282994921     3.7020303300
 Ar     9.3006050394     7.5442926295     1.2427245359
          6
Energy: -2.564793069555374 Kcal/mole
 Ar     9.8472380623     7.4668445864     6.0206014597
 Ar     8.7309234151     6.2242475892     2.5409701204
 Ar     6.9558698482     5.1056530478     6.5709663918
 Ar     9.8776996477     9.7478277648     3.4221114961
 Ar     6.6165361405     8.4849967188     4.7049453484
 Ar     7.0867301999     9.4205152641     0.9663128884
          6
Energy: -2.9052735471526523 Kcal/mole
 Ar     9.3786998218     6.6883063163    -0.1402739961
 Ar     8.1141480135     3.0413179287     1.4402514730
 Ar     7.3136460412     6.4285319053     3.0090189015
 Ar     6.8559274645     4.5250026064    -1.8582269316
 Ar     5.6221622703     7.7287713682    -0.1076425351
 Ar     4.6286619466     4.2626733872     1.2496084412
          6
Energy: -2.9724106814747415 Kcal/mole
 Ar     9.2753431783     6.6276874884    -0.0935581816
 Ar     8.2499385087     3.2379176339     1.2448632637
 Ar     7.2100352289     6.4045155512     3.0922095664
 Ar     6.6584295648     4.5584718833    -1.9277058044
 Ar     5.6221622703     7.7287713682    -0.1076425351
 Ar     4.6120523132     4.3490070262     1.2724836216
