          6
Energy: -0.3935421857884109 Kcal/mole
 Ar     5.5188793977     4.7885669937    -4.2859052420
 Ar     7.0605169969    -6.2514463868     5.5790096402
 Ar     1.8620109638    -7.6837160597    -3.5731650139
 Ar     3.0366776321    -5.7244087061     0.8853836031
 Ar     3.6076525838     7.5075255765    -7.8534367334
 Ar     4.5285159159    -3.9179003422     5.1662140153
          6
Energy: -0.1847669602683646 Kcal/mole
 Ar    -3.0095999712     9.5166677450     5.2609310238
 Ar     1.9016520320     6.8392283065     6.9931910174
 Ar    -1.7386381317    -6.9086358969     3.3009349813
 Ar     6.2456649325     7.2199989519     5.9500485215
 Ar    -6.3638169826    -7.9893632981    -7.2265330331
 Ar     6.2707500969    -4.5217299933     7.5859699274
          6
Energy: -0.39221767508273603 Kcal/mole
 Ar    -5.6944286242    -7.3287616017     9.2316195018
 Ar    -5.1744358814     7.8729186846     2.2241106240
 Ar     5.5937582760     2.9901189615    -1.5573905260
 Ar    -7.7950707144     7.2521778842     7.6399722160
 Ar    -3.2065718042     5.8593907414     5.6271397842
 Ar     3.5341129996     4.2688082421     2.3265480567
          6
Energy: -0.23186972585756355 Kcal/mole
 Ar     1.8824843696    -3.5777804017    -5.9255074144
 Ar    -9.2099727471    -0.4717874861    -3.1907746125
 Ar    -0.2621489355     5.1740625288     3.1787460311
 Ar    -3.6696047015     6.8356109780    -3.4510261897
 Ar    -7.5495244995    -3.1077128794    -0.4333837211
 Ar    -9.4267111025    -6.3349476357     4.7699380015
          6
Energy: -1.7098400800410518 Kcal/mole
 Ar    -4.1074163458    -4.5881422560    -0.6625591305
 Ar    -4.1947407961    -8.1724881961    -2.2884531076
 Ar     0.4431679084    -3.8505814527    -2.8965896206
 Ar    -0.0119431731    -3.2394877033     1.3467318918
 Ar    -1.1191336447    -6.3686745635    -0.8480964455
 Ar    -6.7755387798    -6.3234854249     1.6522337569
          6
Energy: -1.9859859498847576 Kcal/mole
 Ar     2.7667654099    -1.4656129300    -4.4493272077
 Ar     3.1206944380    -3.7592605194    -1.6654890425
 Ar     6.0362364332    -0.0930066383    -5.6111554996
 Ar     3.0655274338    -5.2032072146    -5.2899609733
 Ar    -0.2563902789    -3.3402461051    -2.7991894582
 Ar     0.4789928746    -6.9372494020    -3.7770512275
          6
Energy: -2.5640713520598037 Kcal/mole
 Ar     1.5164540062     5.1005989132    -4.7804193777
 Ar     2.3552101958     1.8753236942    -2.9745102216
 Ar     4.1911265997     2.6244578005    -6.2890626990
 Ar    -1.0324153459     2.6781165285    -3.8911128598
 Ar    -0.2715647159    -1.2260592956    -4.3971564222
 Ar     0.7182312027     1.8143336358    -7.0280272960
          6
Energy: -2.5586856344178717 Kcal/mole
 Ar     3.5947341694     7.7796932468    -3.8108927222
 Ar     3.4380788369     4.8377614463    -0.8900607747
 Ar     3.0409624695     3.9845987411    -4.5813930301
 Ar     0.1895331966     5.8618765185    -2.4135050647
 Ar    -0.4857275740     2.8757171574    -5.1301115075
 Ar     1.2672923102     6.5022882997    -6.7766594282
          6
Energy: -2.7779733876310706 Kcal/mole
 Ar     4.8771782948     9.0661614596    -4.2886145094
 Ar     1.7376825720     7.2882964798    -3.1098789771
 Ar     3.8729446659     6.0805372750    -6.3251062470
 Ar     1.4451636078     9.6694280352    -5.9491132420
 Ar     1.5916907468     7.3134654982    -9.0044050840
 Ar     4.5275096130     9.4462182325    -8.1504326968
          6
Energy: -2.876750720456117 Kcal/mole
 Ar     4.8326543459     9.4218927396    -4.2911170946
 Ar     1.8896606196     7.4129444665    -2.8921478139
 Ar     3.5791317558     6.3159976690    -6.1020092624
 Ar     1.4225970883     9.5075567746    -6.0138051462
 Ar     1.5799617436     7.3680993152    -9.1714659494
 Ar     4.6013027149     9.4035227776    -8.0855768760
