          6
Energy: -2.876833074345932 Kcal/mole
 Ar    -4.4072325476    -9.3518056677    -5.7466318099
 Ar    -7.3731794749    -7.9776148237    -7.6582771953
 Ar    -9.7472906406    -6.2289605190    -5.2297818380
 Ar    -5.9816966712    -6.0537756175    -4.6561872171
 Ar    -4.8050209900    -8.5463803471    -2.0506013472
 Ar    -7.8727871220    -9.3607851251    -4.1417342397
