          16
Energy: -62.30033722354575 Kcal/mole
 H      4.0331631648    -2.3577283163     6.2843415645
 F      4.3905420033    -1.5896248686     6.6353208507
 H      6.8983326327     0.5995398952     1.3066147950
 F      6.8307396434    -0.2832817456     1.0679808947
 H      5.4432110417    -1.1036265379     1.4124699912
 F      4.6720315678    -1.5340010988     1.6593484154
 H      4.7821583602    -2.8894648698     2.5942469202
 F      4.8379303028    -3.6249196248     3.1391182754
 H      6.7794994000     2.1462966800     2.8552027903
 F      6.9103039875     2.1215534862     1.9479173147
 H      5.2138291371    -0.8636370838     5.4388035397
 F      5.6374300720    -0.5350039057     4.6948603414
 H      6.1697448958     1.0331571947     4.6214883727
 F      6.4678753226     1.8851461747     4.4598652722
 H      3.9802297764    -3.7166938040     4.5538677347
 F      3.5492218096    -3.6411455291     5.3597297519
