          16
Energy: -62.23659546788103 Kcal/mole
 H      1.5457429644    -3.8088533299    -4.3072396380
 F      0.6753173170    -3.5535104343    -4.1728960562
 H     -0.1043321264    -2.1161366636    -1.1047737909
 F      0.7817511722    -2.3198359012    -0.9853920141
 H      1.9408116913    -1.3560863930    -1.6635953989
 F      2.5923551586    -0.8662514181    -2.0836451670
 H      3.7909572859    -1.6091920561    -2.9359422288
 F      4.3647787785    -2.1244100217    -3.4320957762
 H     -2.1864178558    -2.5726045766    -1.6532893254
 F     -1.6959104217    -1.8366852658    -1.4109791418
 H     -0.6421764700    -4.5641407731    -4.1452456073
 F     -1.4101115058    -5.0508103774    -4.0255899466
 H     -2.4166143930    -4.4341219043    -2.8510577256
 F     -2.8594050048    -3.9868018482    -2.1841767456
 H      3.6740473155    -3.4445806114    -4.1172296452
 F      3.1529016386    -4.1269044291    -4.4393016733
