          16
Energy: -62.29586280659241 Kcal/mole
 H      3.7155570515    -1.0015249166     6.2087613855
 F      3.5595290604    -0.1092984424     6.0656663658
 H      6.4941848129     0.3387206344     0.5306193330
 F      6.3416129445    -0.5651954327     0.5072405245
 H      5.5518162948    -0.9964377878     1.8692775319
 F      5.1232316843    -1.1306634544     2.6687696845
 H      4.9991994736    -2.6032433355     3.4168888248
 F      4.8993671191    -3.3500479480     3.9395793373
 H      6.0794366942     2.2239110341     1.5539247942
 F      6.6108517245     1.9503470989     0.8584754151
 H      4.7925830281     0.8091063515     5.4670818068
 F      5.4906538523     1.2703737602     5.0918238926
 H      5.2278370231     2.0618304403     3.6682653752
 F      5.0884874707     2.4726513280     2.8603687849
 H      4.4037480519    -2.9739234709     5.4702794843
 F      4.1285887710    -2.6067531185     6.2642330739
