          16
Energy: -0.9830961377773804 Kcal/mole
 H     -0.5705817064    -0.8371610463    -1.1891077986
 F     -0.2622626945    -0.8371610463    -0.3254942352
 H      5.3592562000     0.3707901444     3.7069621803
 F      4.8512045396    -0.3926052383     3.7069621803
 H     -0.5892108331     2.5772687777     4.7714186157
 F     -1.4505543808     2.5772687777     4.4568136367
 H     -3.6012453219     2.6977192284     1.0946491797
 F     -2.6842453219     2.6977192284     1.0946491797
 H      5.4294440638    -2.1612436865    -1.7463312913
 F      5.8844369415    -2.9574035205    -1.7463312913
 H      1.0833101799    -4.8488716443    -3.0214286239
 F      2.0003101799    -4.8488716443    -3.0214286239
 H      3.6181683057    -2.0218987429    -4.7865248371
 F      4.3394433228    -1.4556378934    -4.7865248371
 H     -2.1982801297     3.2114551566    -4.2225261672
 F     -2.7296195822     2.4640814976    -4.2225261672
