          16
Energy: -62.306384730987574 Kcal/mole
 H      3.6284231128    -0.9985876311     6.2237438552
 F      3.4956591393    -0.1071375037     6.0546894331
 H      6.1139272098     0.3008024610     0.5124588337
 F      5.9120111684    -0.5935747780     0.4980273947
 H      5.1732030799    -0.9887135315     1.8979500880
 F      4.7775540459    -1.1110615951     2.7161076481
 H      4.5437373090    -2.6074797189     3.3996486304
 F      4.4031826218    -3.3644144265     3.8978285461
 H      5.8415171508     2.2277542942     1.5331640005
 F      6.3332387954     1.9082499478     0.8281705276
 H      4.7121701500     0.8186620548     5.4291873406
 F      5.3914355712     1.3014010514     5.0464987614
 H      5.0782815270     2.1387273362     3.6596272849
 F      4.9170929677     2.5649016095     2.8638366484
 H      4.1139388475    -2.9895033624     5.4857982925
 F      3.9621203969    -2.6100935614     6.3067053280
