          16
Energy: -62.306277320595186 Kcal/mole
 H      3.6383723670    -1.0063662008     6.2080613723
 F      3.4887125649    -0.1185745244     6.0339439322
 H      6.1705531923     0.2891822476     0.5425278813
 F      5.9527456095    -0.6013653408     0.5231926874
 H      5.2076898105    -0.9819474101     1.9193011935
 F      4.8101705075    -1.0990592564     2.7373184422
 H      4.5934300840    -2.6009605899     3.4090180149
 F      4.4621223637    -3.3638644811     3.9005716086
 H      5.9030133591     2.2176079235     1.5563081708
 F      6.4128525536     1.8906068695     0.8678146657
 H      4.7005336692     0.8325452967     5.4308099175
 F      5.3784861946     1.3278032867     5.0620431936
 H      5.0869652926     2.1491750694     3.6602511705
 F      4.9406417830     2.5659160859     2.8566310141
 H      4.1649355794    -2.9905709240     5.4802836552
 F      4.0056671172    -2.6103457005     6.2993998474
