          20
Energy: -79.01982024006881 Kcal/mole
 H     -1.8537864195     0.5285499438    -2.2331575307
 F     -1.1395424131     0.6519871778    -2.7948582950
 H     -2.8776837800    -0.8988244061    -0.9819897785
 F     -3.0307647473    -0.0300449729    -1.2323445548
 H      1.2502597886    -2.0047223686    -3.9612913864
 F      2.0288266092    -2.1048295065    -4.4353180384
 H      1.1389546105    -6.4236816979    -5.8399862110
 F      0.3208861023    -6.5143641188    -5.4357219233
 H     -1.3144890153    -4.2844582660    -3.0202694031
 F     -2.1280979484    -4.1789595208    -2.6106360076
 H     -0.4500387705    -0.8090609946    -3.0412321896
 F     -0.1580120908    -1.6757494667    -3.1080192437
 H      0.1460005165    -5.3059238336    -4.3562340566
 F      0.1350096789    -4.5841754003    -3.7906835279
 H     -2.3009247551    -3.0916186050    -1.3793681615
 F     -2.3994099510    -2.4659994048    -0.7162013027
 H      2.9530859687    -3.4862684067    -4.5143759421
 F      3.4364543471    -4.2595240441    -4.6109146909
 H      3.0225664684    -5.3798070358    -5.7700985235
 F      2.6422487323    -5.9844032039    -6.3451732083
