          20
Energy: -78.77041364173242 Kcal/mole
 H      2.0865431071     0.2335856230    -1.0096245184
 F      2.2122739387     0.1707244512    -1.9157863312
 H      0.8502527814    -0.1239325077     0.7740333673
 F      1.6947468272     0.1848827019     0.5941668252
 H      2.7075660917    -2.5173359469    -4.2710167809
 F      3.3418878361    -2.7967395016    -4.8713988077
 H      0.5473808988    -5.0225448862    -4.9341507982
 F      0.2354532393    -4.1757869968    -4.7710826780
 H     -1.0537248338    -2.0302083697    -2.0790605326
 F     -1.0400819502    -1.1832125787    -1.7279181089
 H      1.8132568529    -1.2241318324    -2.6995620848
 F      1.6357297958    -2.0309814113    -3.0975154753
 H     -0.6261834108    -3.7748029468    -3.4023584056
 F     -1.1037516693    -3.5787252244    -2.6444856688
 H     -0.9213384932    -0.9246094643    -0.0938404308
 F     -0.6758887192    -0.7496255343     0.7721988481
 H      3.6430096723    -4.3984066674    -5.1946151675
 F      3.6954017287    -5.3043209701    -5.3267641313
 H      2.2592986148    -6.1332170115    -5.2696532919
 F      1.3871709346    -6.4033195110    -5.1840556916
