          20
Energy: -78.76037250170883 Kcal/mole
 H      2.1451988375     0.2052057689    -0.9897282373
 F      2.2951674435     0.1378470817    -1.8918708117
 H      0.8526890805    -0.1134354595     0.7659223524
 F      1.7098922251     0.1659542161     0.5984912378
 H      2.6865908543    -2.5149415956    -4.2894670649
 F      3.3010033616    -2.7785312838    -4.9170869715
 H      0.5655008796    -5.0434404956    -4.8799919876
 F      0.2538084259    -4.1941567584    -4.7301455730
 H     -1.0517630640    -2.0502599178    -2.0554217507
 F     -1.0521572630    -1.1938442334    -1.7276397803
 H      1.8636735366    -1.2510142180    -2.6684704809
 F      1.6623626260    -2.0534014668    -3.0641188352
 H     -0.5996782116    -3.8026451556    -3.3498623389
 F     -1.0723262986    -3.6112156353    -2.5877288043
 H     -0.9307903968    -0.8835795609    -0.1039711274
 F     -0.6876298741    -0.6869409544     0.7580585813
 H      3.6203855533    -4.3776289524    -5.2204733565
 F      3.6864254372    -5.2850441351    -5.3350395821
 H      2.2732021281    -6.1423224800    -5.2219049368
 F      1.4083769356    -6.4251455958    -5.1079862303
