          20
Energy: -78.72310606653174 Kcal/mole
 H      2.0787296962    -0.7924390027    -0.2352114463
 F      2.4919994882    -0.7785210220    -1.0536876945
 H      0.2552181002    -0.9914634092     0.9749410670
 F      1.1545951987    -0.9034151647     1.1306887521
 H      2.9969604490    -2.7169386687    -4.0161581341
 F      3.7044898313    -2.9553990653    -4.5485375218
 H      0.7596046270    -4.8299891827    -5.4386397371
 F      0.4967221975    -3.9681561457    -5.2682705951
 H     -1.0086731310    -1.8300781668    -2.6551035251
 F     -0.9238130900    -1.0676234767    -2.1527584057
 H      2.0076402188    -1.7586312949    -2.2924297862
 F      1.7721104571    -2.3479787162    -2.9543091924
 H     -0.6134513234    -3.4929863126    -4.1128691332
 F     -1.2294914004    -3.2433246874    -3.4811629543
 H     -1.2561867706    -1.1190210916    -0.5316871258
 F     -1.2673137117    -1.1670968814     0.3839841633
 H      3.9118393426    -4.5204742489    -5.0759157379
 F      3.9025485754    -5.3996754995    -5.3363151285
 H      2.4096339674    -6.0777859165    -5.5773726499
 F      1.5153381855    -6.2669350681    -5.6504934606
