          20
Energy: -78.75859199315413 Kcal/mole
 H      2.0239712366     0.2633079912    -1.0695733045
 F      2.1050493772     0.2252503218    -1.9821887487
 H      0.8745136831    -0.1811545813     0.7394625635
 F      1.7084714489     0.1466542006     0.5446681917
 H      2.7377531560    -2.5294477274    -4.1847223235
 F      3.4052958514    -2.8091541607    -4.7477854292
 H      0.5944727966    -5.0391600337    -4.9368078248
 F      0.2723603475    -4.1974554140    -4.7674977444
 H     -1.0926988390    -2.0341467209    -2.1056127861
 F     -1.0811188409    -1.1936883254    -1.7390277496
 H      1.7488964592    -1.2033241247    -2.7149350609
 F      1.6015536006    -2.0329375414    -3.0767646629
 H     -0.6358807653    -3.7798159010    -3.4329311154
 F     -1.1398112634    -3.5748682491    -2.6947309305
 H     -0.9155063178    -0.9832849090    -0.1073249312
 F     -0.6469226078    -0.8322485281     0.7563531351
 H      3.7134787465    -4.4126959029    -5.0574007331
 F      3.7673539406    -5.3186599774    -5.1886088086
 H      2.3298765750    -6.1373425028    -5.2252526362
 F      1.4545820978    -6.4086905498    -5.1918039371
