          20
Energy: -78.76599264372706 Kcal/mole
 H      2.1070635450     0.2140864178    -1.0020350505
 F      2.2365705601     0.1552829045    -1.9079374072
 H      0.8557552302    -0.1375840582     0.7693340143
 F      1.7060086681     0.1597216146     0.5973821949
 H      2.6922737360    -2.5119448737    -4.3027168643
 F      3.3144013932    -2.7868558420    -4.9177535605
 H      0.5541864110    -5.0321555432    -4.9238324849
 F      0.2431409109    -4.1870958115    -4.7505877252
 H     -1.0402238818    -2.0344005886    -2.0787965548
 F     -1.0386683191    -1.1794891966    -1.7471143394
 H      1.8327929500    -1.2347384441    -2.7001564899
 F      1.6492987420    -2.0385483782    -3.1015396802
 H     -0.5972322288    -3.7942673123    -3.3680408648
 F     -1.0643217422    -3.5984009188    -2.6036111804
 H     -0.9241984965    -0.9142084962    -0.1150702081
 F     -0.6820350599    -0.7424212835     0.7525328252
 H      3.6388736382    -4.3925402413    -5.1878114970
 F      3.7020991295    -5.3016386467    -5.2899468316
 H      2.2672150017    -6.1380359427    -5.2612053176
 F      1.3943460354    -6.4101543690    -5.1909178391
