          20
Energy: -78.74116397364811 Kcal/mole
 H      1.9443586311     0.3069604054    -1.0100758284
 F      2.1747120064     0.1852760115    -1.8892909504
 H      0.5139168430     0.0660095962     0.6660294286
 F      1.3769690102     0.3496717709     0.5412667441
 H      2.9223974873    -2.7961218382    -3.8211401219
 F      3.6179622011    -3.1658891915    -4.2905555386
 H      0.6073539107    -5.0658435731    -4.9195459880
 F      0.3714891135    -4.2050738450    -4.7089936843
 H     -1.0902292688    -2.0471778318    -2.1859255928
 F     -1.1098417688    -1.1772319429    -1.8966186621
 H      1.8542233770    -1.2855666839    -2.5661020157
 F      1.7083420819    -2.1316924864    -2.8880939008
 H     -0.5646784650    -3.8157334953    -3.3925174079
 F     -1.0858572948    -3.6195395731    -2.6639780663
 H     -1.1695150959    -0.7843693235    -0.2864425316
 F     -1.0149083780    -0.5340623850     0.5820804671
 H      3.7600877019    -4.7775055892    -4.6823854613
 F      3.7257666432    -5.6726524243    -4.8784038498
 H      2.2187882077    -6.3418639776    -5.1303303869
 F      1.3214086012    -6.5140613959    -5.2074464755
