          20
Energy: -78.73805610867485 Kcal/mole
 H      3.0546856855    -0.5810131433     0.6207039735
 F      3.5001995565    -0.8367269355    -0.1389122765
 H      1.2162659771     0.0902582258     1.5946280101
 F      2.0577883877    -0.1507034036     1.8678797725
 H      3.5597447104    -3.6262028492    -2.4228385539
 F      4.1504111279    -4.2650264853    -2.7125048190
 H      0.8252782898    -4.8252567724    -4.0650431485
 F      0.9550832540    -3.9176714904    -4.0469150706
 H      0.0212775116    -1.0381009873    -1.9948116318
 F      0.3459540845    -0.2726073533    -1.6081675845
 H      2.8488119364    -1.8909093807    -1.2339484442
 F      2.4950533466    -2.5237946974    -1.7953752301
 H     -0.0435697067    -2.9323772707    -3.1458966859
 F     -0.6096693538    -2.4125732331    -2.6456727840
 H     -0.0972486159     0.2137632936    -0.0825859407
 F     -0.1883842365     0.4069659262     0.8091853537
 H      3.6899252175    -5.8214459570    -3.0594784294
 F      3.3193688413    -6.6388681277    -3.2476219035
 H      1.7176348040    -6.6551280325    -3.7095178794
 F      0.8534678526    -6.4543907933    -3.9414856377
