          20
Energy: -1.800744807938969 Kcal/mole
 H     -1.5444935476     1.1304608588     4.5775260519
 F     -1.0840707237     1.9234929031     4.5775260519
 H     -1.3290509378    -3.8785025662    -0.3756113148
 F     -0.8509425637    -3.0960056764    -0.3756113148
 H     -4.3679059854    -0.9365581117    -4.4286580561
 F     -4.0603950209    -0.9365581117    -3.5647564374
 H      1.8084747626     1.9222588159     1.8431562671
 F      2.6927016461     2.1652234603     1.8431562671
 H      4.0568769180     2.5025678528    -2.4657744130
 F      4.8890534574     2.8877576856    -2.4657744130
 H     -2.7933304175    -0.7196817820     0.3551652615
 F     -3.6697611579    -0.4499445817     0.3551652615
 H      3.8797037778    -4.3889207509    -4.9494447630
 F      4.7967037778    -4.3889207509    -4.9494447630
 H      2.4544611192    -4.3294698928     3.2197952178
 F      3.3714611192    -4.3294698928     3.2197952178
 H     -0.6033206068    -4.6774214286    -3.5569154239
 F     -0.2624874312    -4.6774214286    -4.4082213304
 H     -3.8244789720     3.6393917116     0.2285037724
 F     -2.9074789720     3.6393917116     0.2285037724
