          20
Energy: -78.96060069540944 Kcal/mole
 H      1.8793231541     3.8164251890     3.4775819996
 F      1.3729741501     3.0558837634     3.5555334333
 H      2.9705607833     5.0856081806     2.0989023455
 F      2.8621585533     5.0657326105     3.0092555288
 H      1.2555914297     0.2206371275     1.0742659223
 F      0.9271946107    -0.6282169918     0.9625018251
 H      2.5571557481    -1.1868962449    -3.4128629672
 F      2.7086354819    -0.3021635570    -3.6004555073
 H      3.5531283921     2.0974622604    -0.9178505680
 F      4.0536665283     2.8502444627    -0.7640015181
 H      1.6206984455     2.1671426307     2.2130729485
 F      1.8382923746     1.7597315433     1.4208873087
 H      2.6930133102     0.4417785602    -2.1553888886
 F      2.6706949662     0.7426179168    -1.2894289744
 H      3.4036941377     4.1656309935     0.0118833791
 F      3.0362000580     4.8809614624     0.4524959318
 H      1.7816658388    -1.8627600343     0.2584179312
 F      2.2480099008    -2.5317032316    -0.1610188513
 H      2.2633980039    -2.6950186388    -1.8092612020
 F      2.2755518954    -2.6626069589    -2.7256076244
