          6
Energy: -0.8240674515571086 Kcal/mole
 Xe    -1.7093240154    -2.8766576008    -0.2272204701
 Xe    -4.6883516401    -0.4381199481     1.8536463386
 Xe     2.5816466186    10.7759026686     0.3267829727
 Xe     6.8163984660    -7.5586896044   -10.3200160672
 Xe     8.4608940254     9.2752254119     8.8480623491
 Xe    -7.6572021920    -4.3349365741     0.2133972173
          6
Energy: -0.46645545882649536 Kcal/mole
 Xe    -3.6124330285    -3.0334731378    -6.0633670206
 Xe    -6.6099673973     7.6377204370    10.9104845806
 Xe    -1.5297965926    -3.8793463407   -10.2856929839
 Xe    -0.4862630262    -0.1189458745    -0.6950362309
 Xe     7.1456945740    -7.6569879767    -4.7291346840
 Xe    -4.9239524485     7.2380171185     0.2235261274
          6
Energy: -0.8596914352422869 Kcal/mole
 Xe     5.7053626493     9.1635865828    -7.1357827368
 Xe    -5.1306506047     5.0358551261    -4.7604186728
 Xe    -5.8812012462    -4.3958808991    10.6483758825
 Xe     8.4741952737     3.7143606666    10.0804633785
 Xe     8.9112393157     7.0452776738    -4.5282736838
 Xe    -2.6949972950     8.6362651213    -5.6975135947
          6
Energy: -1.4041812177093604 Kcal/mole
 Xe     4.0802400986    -4.2181932944    -7.5423232551
 Xe    -0.9664496691    -1.9440986728    -2.5793703176
 Xe     2.6935939441     6.7519002602    -3.8087928565
 Xe     5.2293118663    -1.1951583302    -1.7891062241
 Xe     1.5632726745     2.9902304809     3.7209764298
 Xe     1.0647715912     1.7182189821    -1.5061612125
          6
Energy: -2.5919997472235092 Kcal/mole
 Xe     1.3006334401    -0.0326196060    -4.0362710334
 Xe     7.9561968225     8.1665546664    -3.5807042962
 Xe    -1.0642025176     0.1425680852    -0.0962035107
 Xe    -4.4219194729    -1.1251865247    -3.3928438616
 Xe    -3.4019358844     3.6190497278     0.5061345003
 Xe    -6.1377429171     0.0776274029     0.6610535750
          6
Energy: -3.2012247192127066 Kcal/mole
 Xe     0.0984734166     5.1749285721    -3.3309541210
 Xe     2.2336147343     1.5767955723     0.2196629837
 Xe    -1.6726378418     6.6650860158     0.4576273856
 Xe     0.2072849033     0.9126423005    -3.8991134774
 Xe     6.6504813602    -5.1972317721     4.7527117306
 Xe    -2.2346308053     2.4350565603    -0.1774913916
          6
Energy: -4.873946329509988 Kcal/mole
 Xe    -3.6636468597     2.8158732197     0.5065389032
 Xe     0.1481487410     0.8717271395     1.3853925802
 Xe     0.0249252814     3.6283806286    -1.9400348890
 Xe     0.1894614212    -3.8863718984     0.5679648071
 Xe    -1.5311554247    -1.0238078052    -2.3793851160
 Xe    -3.7143956355    -1.4744856189     1.3963964721
          6
Energy: -4.431013508368534 Kcal/mole
 Xe    -3.9190703224     6.1966658972    -1.2172857508
 Xe     0.1076679512     6.5661290038    -1.4247220030
 Xe    -1.6897382343     2.6824866641    -2.7787940761
 Xe    -0.9374787374    -1.2534131443     0.1653371061
 Xe    -5.2182458837     1.2999841991    -0.6428629705
 Xe    -1.9019134309     3.5987412575     1.3799055096
          6
Energy: -5.003139818393401 Kcal/mole
 Xe    -3.7284744650     5.2259822504    -2.2581676688
 Xe     0.3678834045     5.2642799547    -4.4891767981
 Xe    -1.5440642385     1.4244279356    -3.5752292063
 Xe    -0.1900990738    -0.4053932831     0.3915611422
 Xe    -3.9054718766     1.9233918324     0.6577834526
 Xe     0.1002987912     4.0016563596     0.0882665186
          6
Energy: -5.325935092801233 Kcal/mole
 Xe    -3.4899811873     5.3751136625    -2.3205914430
 Xe     0.5272108977     5.2955443288    -4.1726825659
 Xe    -1.6122123530     1.5270605703    -3.4279057765
 Xe    -0.1860085822    -0.4416726704     0.2393445915
 Xe    -3.9189527119     1.8833551256     0.3350894373
 Xe    -0.0235016690     3.9307139770    -0.0162867833
