          6
Energy: -5.325469987834928 Kcal/mole
 Xe     4.5084251952     7.8401847456    -0.9712218727
 Xe     3.4621195599     3.7955630805    -2.4332899721
 Xe     2.5606743136     4.9666661896     1.7210433510
 Xe     8.8539905394     7.9941297194    -0.2869294570
 Xe     6.7282090312     4.2682058540     0.4976382348
 Xe     7.2510715374     5.6627311499    -3.6546305841
