          6
Energy: -2.325040098327159 Kcal/mole
 Xe    -2.2909292170     4.6553769397     7.5672462893
 Xe     5.8367205597     2.3503814648     4.9616426188
 Xe     4.3106912454     5.5269279361     8.2532837950
 Xe    -4.6529374921     0.6454194164     7.8057330467
 Xe     1.8175284901     2.0848501725     7.2435525124
 Xe     3.8787455279    -3.0928069343     3.4732844739
          6
Energy: -3.9719984880641057 Kcal/mole
 Xe    -5.7330950731     3.5338090204     6.1733802413
 Xe    -8.4338040437     3.0307954992     9.6255926196
 Xe    -4.7114625782     4.8982245144    10.4900957208
 Xe    -8.7830540739     6.7033358674     4.4726800793
 Xe    -3.9181514046     0.6567828334     8.5756171556
 Xe    -7.8265688384    -0.6523959378     6.4190302129
          6
Energy: -4.030690727907032 Kcal/mole
 Xe    -7.1994228610     2.6048451723     6.4422498367
 Xe   -10.4348685345    -0.6309213626     6.9069562191
 Xe    -3.8713932865     0.0822014029     7.5117897550
 Xe    -4.2632101544     1.7423793583     3.5159502304
 Xe    -6.6024620850    -1.5283436600     4.3881159857
 Xe    -6.6873929579     3.7308841808    10.7182101004
          6
Energy: -4.471747937802685 Kcal/mole
 Xe     4.7825839630     2.8265510028     8.3923014083
 Xe    -3.0684785378     5.2682968616     8.7361756521
 Xe     1.1929400291     5.1834898402     5.9990112681
 Xe     1.6779892109     0.4469859027     5.2301758480
 Xe    -0.0230298245     2.1399612405     9.1996828880
 Xe     1.7163044062     6.1498635725    10.2040619050
          6
Energy: -4.640408111079355 Kcal/mole
 Xe    -1.2984300921     7.0434256244     4.2647069924
 Xe    -2.0187752684     4.6289604052     1.1911341144
 Xe    -1.1973063703     5.4683529965     8.0446944314
 Xe     2.0541323378     5.5689778130     1.4001844776
 Xe     0.1209571298     2.9219002013     4.7800683628
 Xe     2.7230806711     6.1199773538     6.0929241102
          6
Energy: -4.985203742273714 Kcal/mole
 Xe    -2.0527955553     5.4176066871     3.3122074233
 Xe     0.5749622360    -0.4191825752     5.2244416869
 Xe    -3.3497893002     1.1351460794     4.4105178970
 Xe    -0.3728093431     1.5740351682     1.0178887347
 Xe     2.2556805065     3.7659996213     3.8472378382
 Xe    -0.4868394553     3.4495179204     7.5244991906
          6
Energy: -5.271853937369284 Kcal/mole
 Xe    -4.2312933340    10.4753615718     2.6094453686
 Xe    -1.0873919846     6.4659885074     6.1329403190
 Xe    -5.0423492145     7.3830844287     5.2840940196
 Xe    -2.2384825189     6.4205074619     1.8824198190
 Xe     0.2271370912     9.6077333424     3.4741093338
 Xe    -2.5291812869    10.5523534016     6.7747894532
          6
Energy: -5.2508793264003435 Kcal/mole
 Xe    -7.4611439345     6.6770622549     4.8867286625
 Xe    -1.4821853960     6.9426536175     2.7218183618
 Xe    -4.0835878331     3.8514739598     4.2516221406
 Xe    -5.1949248082     6.1665613745     0.8333818654
 Xe    -4.5527004147     9.7249476231     3.6065005021
 Xe    -3.0587063602     7.2735154322     6.9426162865
          6
Energy: -5.399753437830561 Kcal/mole
 Xe    -6.1247884423     6.4552150059     6.3853860160
 Xe    -1.8078754766     5.8254609217     1.7788311222
 Xe    -2.3628598196     3.9797284944     5.7285099983
 Xe    -5.7173711070     3.8548628008     2.6993325381
 Xe    -5.6238827331     8.1444073844     2.5219988402
 Xe    -2.2128398497     8.3419512137     5.4386644751
          6
Energy: -5.502514543114268 Kcal/mole
 Xe    -6.0279123722     6.3556415569     6.3647292211
 Xe    -1.8076870210     5.8724682283     1.7831917832
 Xe    -2.3914984237     3.9460596671     5.7183311466
 Xe    -5.6397451833     3.9175046242     2.7459710271
 Xe    -5.4213966746     8.2778786480     2.4368758293
 Xe    -2.2035708851     8.3294433444     5.4207381250
