          6
Energy: -5.502514543114268 Kcal/mole
 Xe    -6.0279123722     6.3556415569     6.3647292211
 Xe    -1.8076870210     5.8724682283     1.7831917832
 Xe    -2.3914984237     3.9460596671     5.7183311466
 Xe    -5.6397451833     3.9175046242     2.7459710271
 Xe    -5.4213966746     8.2778786480     2.4368758293
 Xe    -2.2035708851     8.3294433444     5.4207381250
