          6
Energy: -0.6494310973668397 Kcal/mole
 Xe     6.0407903601     8.9500190217     8.1764581739
 Xe     1.8237358387     9.7607740539    -5.5608243934
 Xe    -8.9561111625    -7.4367926115     2.9824741374
 Xe    -0.3004631477     8.1614701532   -10.2561405130
 Xe     2.2357073855     9.9479021636     5.8422485917
 Xe    -8.9043361861     3.7026792989    -4.2688745204
          6
Energy: -1.7232482680609862 Kcal/mole
 Xe    -2.8817293474     1.0677868524    -4.6561949833
 Xe     2.3019523766     4.8057507403    -5.4602066436
 Xe     1.4869690335    -0.9749787518    -4.4149954172
 Xe    -1.6816223268    -3.3550176142    -7.0469879491
 Xe     3.4079280698    -0.4353017554     0.4581768316
 Xe     0.3631174016     9.9210633081    -3.8448442881
          6
Energy: -0.938161705544315 Kcal/mole
 Xe    -1.9794767980    -2.3534062480    10.2170732894
 Xe     1.7415614661    -7.2246921619   -10.7717498987
 Xe    -3.9672660500     2.8855565850     1.7895510687
 Xe    -1.1247324989     0.1447252023     6.8526068790
 Xe     3.3404213495     0.1575586743     9.3091175514
 Xe    -0.8946425886     3.4635097148   -10.1556020497
          6
Energy: -3.0670918031452277 Kcal/mole
 Xe     3.9991246981     1.0580248806     7.0737799619
 Xe     0.5796403306    -3.9859963546     7.4813376673
 Xe     4.7304093919    -3.7944816919     1.8610504614
 Xe     0.4377925478    -2.5505628050     3.2596369078
 Xe    -3.1995447607    -4.0599609635    10.5303525285
 Xe     4.4609941766    -3.1778405738     6.1670490370
          6
Energy: -3.8441300917080508 Kcal/mole
 Xe    -7.2126010626    -0.2624817976     0.3605428795
 Xe    -4.3229666878    -0.3377885216     7.5597284011
 Xe    -3.0400563446    -1.2789806096     3.0314711766
 Xe    -0.6361665903    -2.7406631741     6.5437214601
 Xe    -0.9674347676    -0.3900887657    10.3749481615
 Xe    -0.2734160144     1.3400542064     6.5678204603
          6
Energy: -4.650239182143426 Kcal/mole
 Xe    -3.7785269799     2.4650054774    -0.0628385452
 Xe     0.5102640462     0.8776027608    -0.6231391880
 Xe    -2.6478451485    -0.7884100746    -2.8371971429
 Xe    -2.4557225322    -0.5541162906     2.9179675605
 Xe    -0.4521824068    -3.2734809218    -0.1739443572
 Xe     2.0452526614    -0.7386963212     2.7727604637
          6
Energy: -4.824886172573637 Kcal/mole
 Xe     2.1525308953     3.0154522077    -1.1733378188
 Xe     5.6666655621     0.5418083667    -1.9978817652
 Xe     0.1250978743     1.1031303836     1.9997841069
 Xe     2.4849014801     4.5851631106     2.9572942855
 Xe     4.8025540716     0.9978310535     2.5244086069
 Xe     6.2401037028     4.7286484340     0.9077309975
          6
Energy: -5.024226991664792 Kcal/mole
 Xe     1.3863072725     5.6151409805    -1.1275569274
 Xe     2.5474860633     1.6778066959    -2.0731909051
 Xe     0.4285015133     2.6503059884     1.6888718574
 Xe     4.9579203920     7.5047104702     0.3988564434
 Xe     4.6212344218     3.3553255916     1.1251872929
 Xe     5.4774663300     5.0587152153    -3.1577846995
          6
Energy: -5.169852857430287 Kcal/mole
 Xe     4.4191154303     7.8846137243    -1.1547220438
 Xe     3.4787193299     3.9664750459    -2.6898832319
 Xe     2.3501363458     4.3948436866     1.5483138800
 Xe     8.7951960390     8.2410453672    -0.5231942515
 Xe     6.6549417163     4.3674488746     0.5064327189
 Xe     7.3065654959     5.7886663679    -3.7444823259
          6
Energy: -5.325469987834928 Kcal/mole
 Xe     4.5084251952     7.8401847456    -0.9712218727
 Xe     3.4621195599     3.7955630805    -2.4332899721
 Xe     2.5606743136     4.9666661896     1.7210433510
 Xe     8.8539905394     7.9941297194    -0.2869294570
 Xe     6.7282090312     4.2682058540     0.4976382348
 Xe     7.2510715374     5.6627311499    -3.6546305841
