          6
Energy: -0.09930757594982764 Kcal/mole
 Xe    -7.1725934702    -5.3040759201    -4.0609613772
 Xe     5.1191184477    -2.5796151433    -4.6212991817
 Xe     0.0714323196     1.5734716782     6.3880785051
 Xe    -5.7576397314     4.5634547468    -5.4140346199
 Xe    -0.6311728505    -4.6847463420     1.5182376197
 Xe    -6.2874016289     6.3301972626     4.6035884822
