          6
Energy: -5.325935092801233 Kcal/mole
 Xe    -3.4899811873     5.3751136625    -2.3205914430
 Xe     0.5272108977     5.2955443288    -4.1726825659
 Xe    -1.6122123530     1.5270605703    -3.4279057765
 Xe    -0.1860085822    -0.4416726704     0.2393445915
 Xe    -3.9189527119     1.8833551256     0.3350894373
 Xe    -0.0235016690     3.9307139770    -0.0162867833
