          14
Energy: -45.728981499352116 Kcal/mole
 H      1.2365265876     2.2756758029     1.4956802482
 F      0.6831636394     2.4916274320     2.1942812370
 H     -0.1342546351    -1.0872579108     2.0118326163
 F      0.6227977259    -1.3049878783     2.4812518149
 H     -1.6038562317     0.4157140561     1.2471354228
 F     -1.3786893991    -0.4600424891     1.0946907732
 H     -2.4981909485     3.6150361694     1.6039579738
 F     -2.7379959168     4.4976402781     1.6702343984
 H     -0.9017306265     2.3027640021     1.8047335745
 F     -1.7508099805     2.0687897783     1.5493724319
 H      2.0091450003    -1.0098965595     1.6064038411
 F      2.6980686114    -0.7220338048     1.0740427865
 H      2.3785219489     0.8010026617     0.4716631399
 F      2.0810140277     1.6342275114     0.2305938831
