          14
Energy: -45.69467408834427 Kcal/mole
 H      1.4955981428     2.2517818274     1.6905808964
 F      0.7779759163     2.3415427009     2.2543630579
 H      0.3594971678    -1.4046748461     1.5559890276
 F      1.0469763658    -1.5406486117     2.1474046914
 H     -1.0635396724    -0.0254039019     0.6463363403
 F     -0.7832835046    -0.8821211853     0.4778697955
 H     -2.2951327194     3.0491887494     0.7650184099
 F     -2.7027155949     3.8632571044     0.6552098807
 H     -0.6285775338     1.9364992938     1.4934638583
 F     -1.3538995632     1.6214105442     1.0292268138
 H      2.5069021510    -1.0261960638     1.5135239487
 F      3.2301162032    -0.6241999284     1.1182398207
 H      2.9416366592     0.9743622801     0.7445628029
 F      2.6510896785     1.8297938348     0.5873740394
