          14
Energy: -45.20751933095242 Kcal/mole
 H      1.6960702017     1.8741971376     1.7287005024
 F      0.9158326342     1.8054945223     2.2055634690
 H      0.4050877036    -1.6381881889     1.4497667664
 F      1.2447393623    -1.7318758964     1.8062730152
 H     -1.2918764236    -0.3439379071     0.8594736621
 F     -1.0954360855    -1.2393215017     0.8352164577
 H     -1.8497523010     2.9787940095     0.4222674062
 F     -1.9222119662     3.8684568954     0.2121756492
 H     -0.5418666362     1.6312193512     1.4131373879
 F     -1.3289601441     1.4062461288     0.9999063884
 H      2.4313786000    -1.1814959455     0.8602421765
 F      3.0455178547    -0.7821416423     0.3086643340
 H      3.0099199582     0.9268230716     0.3968258139
 F      2.8686765949     1.8128285082     0.5863876208
          14
Energy: -45.47669393519337 Kcal/mole
 H      1.7056413615     2.0357611601     1.7810496885
 F      0.9567782583     2.0049246755     2.3093887499
 H      0.4423466440    -1.3801418608     1.2036315254
 F      1.1617685065    -1.5431846921     1.7483683598
 H     -1.0661742626    -0.0525790850     0.4582957690
 F     -0.8137389839    -0.9007210394     0.2178365099
 H     -2.1819759477     3.0462800348     0.9137808267
 F     -2.5477975197     3.8871309678     0.9195502209
 H     -0.4643011531     1.8036125454     1.4670812882
 F     -1.2142585216     1.5669188248     0.9954574677
 H      2.7311664810    -1.1176219539     1.3170354279
 F      3.4963841257    -0.7169672558     1.0091283494
 H      3.2828144731     0.9313607269     0.8148550238
 F      3.0300638221     1.8123244329     0.7847044511
          14
Energy: -45.507391985156346 Kcal/mole
 H      1.5418559529     2.0155145000     1.5793856974
 F      0.8431699994     2.0074925845     2.1732397091
 H      0.5333166024    -1.3225516642     1.4811976719
 F      1.1965865505    -1.4657393060     2.0980114811
 H     -0.9509135125    -0.0161258746     0.5771025853
 F     -0.6021751481    -0.8414388907     0.3818361556
 H     -2.0859086154     3.1139043022     0.5799996137
 F     -2.2919305766     3.9930456134     0.4201418447
 H     -0.5962301115     1.8650914413     1.4153839428
 F     -1.3460803367     1.6060794454     0.9554639217
 H      2.6921515005    -1.0644639706     1.4240021407
 F      3.3862584633    -0.7010578376     0.9475144632
 H      2.9821398971     0.8810270040     0.5750062403
 F      2.6344039584     1.7079434246     0.3848012188
          14
Energy: -45.471467647295086 Kcal/mole
 H      1.5618138381     2.1371711441     1.5749173053
 F      0.8566680207     2.1858767293     2.1591143116
 H      0.4700473880    -1.3429214646     1.6588552570
 F      1.1549469208    -1.5007130712     2.2478403492
 H     -0.9638146654     0.0123835246     0.7345750401
 F     -0.6827639178    -0.8521071952     0.6139298049
 H     -2.2817090651     3.1098564256     0.6321365803
 F     -2.7594468203     3.8906281725     0.5768996665
 H     -0.5622902805     1.9697490137     1.3938723069
 F     -1.3033058531     1.7006955084     0.9254759656
 H      2.6361659496    -0.9672659496     1.6776146496
 F      3.3833733826    -0.5811759217     1.3122319154
 H      3.0032505211     0.9057698307     0.6918880919
 F      2.6664762819     1.7123593770     0.4146058971
          14
Energy: -45.51110631074583 Kcal/mole
 H      1.5284233368     2.1286157719     1.6255760845
 F      0.8280529514     2.2530839020     2.2042625348
 H      0.3881349793    -1.4001369542     1.6385874352
 F      1.0901176688    -1.5146106615     2.2173836636
 H     -1.1040495611    -0.0068075910     0.6858620646
 F     -0.8416931583    -0.8816490057     0.6039437092
 H     -2.1859872013     3.1782807407     0.8753244632
 F     -2.5492250580     4.0173434707     0.9454742649
 H     -0.5797467948     1.9364933992     1.4179569740
 F     -1.3138335034     1.7016918722     0.9210928606
 H      2.5755575679    -1.0354391470     1.5331106437
 F      3.3005376870    -0.6259977620     1.1488573691
 H      2.9130176009     0.8921600052     0.6026863717
 F      2.5845550017     1.7238962697     0.3996688666
          14
Energy: -45.4139320957961 Kcal/mole
 H      1.5049565042     2.2469576296     1.6589226089
 F      0.7833399496     2.2813019776     2.2237048801
 H      0.3093599631    -1.2403205687     1.5758225862
 F      0.9883148048    -1.3440864173     2.1833931349
 H     -1.0853859249     0.0795476749     0.6667321511
 F     -0.8964622316    -0.8062570954     0.5233907859
 H     -2.0612790980     3.2435527174     0.6496503981
 F     -2.2487135244     4.1255745096     0.4829323907
 H     -0.6606470663     1.9564226476     1.5006380015
 F     -1.3896205247     1.6827297154     1.0163045669
 H      2.4636283679    -0.9480477838     1.4598618585
 F      3.1628081587    -0.6090877934     0.9728888151
 H      3.0270172951     1.0845725076     0.6556726762
 F      2.7254602816     1.9442572652     0.5512960256
          14
Energy: -45.44497802003582 Kcal/mole
 H      1.5005588351     2.2463087759     1.6776609571
 F      0.7974416079     2.3149745660     2.2622977452
 H      0.3523964971    -1.4357805248     1.5580013711
 F      1.0473530400    -1.5389985273     2.1472979412
 H     -1.1075540086     0.0108347387     0.6848285851
 F     -0.8629071587    -0.8592711370     0.5300620390
 H     -1.9892469757     3.2351972909     0.5077334919
 F     -2.0763162553     4.1003690596     0.2165535625
 H     -0.6561556850     1.9646274615     1.5007929705
 F     -1.4155367209     1.6816900025     1.0716358472
 H      2.4670037661    -1.0219484262     1.4948657987
 F      3.1846377887    -0.6334196088     1.0766125648
 H      2.9857516963     1.0022555245     0.7548228716
 F      2.7049148607     1.8608313719     0.5971295429
          14
Energy: -45.621341039338816 Kcal/mole
 H      1.5223010537     2.2382017558     1.7059681224
 F      0.7962882334     2.3154046247     2.2607961155
 H      0.3345051771    -1.3969466047     1.5883593882
 F      1.0483021331    -1.5410585770     2.1456875186
 H     -1.0840124742    -0.0012317159     0.6557420728
 F     -0.7941822428    -0.8564084221     0.4958663767
 H     -2.3196116274     3.0557305824     0.6805252518
 F     -2.7369591307     3.8548645276     0.5129096226
 H     -0.6402505588     1.9752237507     1.4811478324
 F     -1.3689384824     1.6441741715     1.0335888015
 H      2.5134207833    -1.0380395501     1.5131622696
 F      3.2297704048    -0.6235716588     1.1182590070
 H      2.9629476920     0.9755062946     0.7562621686
 F      2.6933594402     1.8402303992     0.6132118369
          14
Energy: -45.6773834573642 Kcal/mole
 H      1.4928269289     2.2615748198     1.6856141112
 F      0.7781229228     2.3410232053     2.2546265344
 H      0.3583639004    -1.4037744079     1.5575173380
 F      1.0470364830    -1.5406963779     2.1473236181
 H     -1.0707984741    -0.0266807520     0.6404770048
 F     -0.7828984419    -0.8820534514     0.4781806197
 H     -2.3052611924     3.0430572468     0.7561035843
 F     -2.7021783028     3.8635823664     0.6556827916
 H     -0.6262394229     1.9331646938     1.4920530068
 F     -1.3540235946     1.6215874370     1.0293016562
 H      2.5043723746    -1.0273921366     1.5076222491
 F      3.2302504020    -0.6241364795     1.1185528922
 H      2.9260758213     0.9712777879     0.7553095695
 F      2.6519151450     1.8299574600     0.5868039483
          14
Energy: -45.69467408834427 Kcal/mole
 H      1.4955981428     2.2517818274     1.6905808964
 F      0.7779759163     2.3415427009     2.2543630579
 H      0.3594971678    -1.4046748461     1.5559890276
 F      1.0469763658    -1.5406486117     2.1474046914
 H     -1.0635396724    -0.0254039019     0.6463363403
 F     -0.7832835046    -0.8821211853     0.4778697955
 H     -2.2951327194     3.0491887494     0.7650184099
 F     -2.7027155949     3.8632571044     0.6552098807
 H     -0.6285775338     1.9364992938     1.4934638583
 F     -1.3538995632     1.6214105442     1.0292268138
 H      2.5069021510    -1.0261960638     1.5135239487
 F      3.2301162032    -0.6241999284     1.1182398207
 H      2.9416366592     0.9743622801     0.7445628029
 F      2.6510896785     1.8297938348     0.5873740394
