          14
Energy: -5.223352090012426 Kcal/mole
 H      1.7847017524     0.2737034172     1.9611276493
 F      0.9896688305     0.2737034172     2.4180867867
 H      0.5536623097    -3.3736615377     1.3271176945
 F      1.4706623097    -3.3736615377     1.3271176945
 H     -1.7495997751    -4.0243826733     1.8066770105
 F     -1.9322322403    -3.1257535047     1.8066770105
 H     -1.4128445680     3.4321058086    -1.4573959698
 F     -0.4958445680     3.4321058086    -1.4573959698
 H     -1.1038580907     0.1387709442     1.1886861321
 F     -1.8745365411     0.6357052719     1.1886861321
 H      4.2421495848    -0.9736662503    -1.6864818063
 F      3.9500412329    -0.9736662503    -2.5557123343
 H      3.2949138931     2.8306128984    -2.5546367238
 F      4.2119138931     2.8306128984    -2.5546367238
