          14
Energy: -44.84583984267138 Kcal/mole
 H      1.2437662234     1.6661013622     1.3546656899
 F      0.5715509068     1.4911080113     1.9533249379
 H      0.3746598985    -2.2171603651     0.9460534351
 F      1.2557166205    -2.0932870976     1.1680522326
 H     -1.3922130451    -1.1319222538     0.8411688795
 F     -1.2393059325    -2.0264993659     0.7098669169
 H     -1.6523505354     2.0951429943    -0.0803802418
 F     -1.2360126618     2.8460138018    -0.4024746463
 H     -0.8382596755     0.9419807891     1.3464790597
 F     -1.5898958458     0.5756553069     0.9699983716
 H      2.1813015049    -1.3127329855    -0.0023468215
 F      2.4858139609    -0.6982332133    -0.6110759847
 H      2.5865691575     0.9026467924    -0.0795223997
 F      2.5140285495     1.7234633076     0.3228295712
          14
Energy: -45.12889245735407 Kcal/mole
 H      1.2861080275     1.7171739377     1.7168103025
 F      0.5297718881     1.6710534288     2.2332573404
 H      0.3298537722    -2.1587324006     0.9774070530
 F      1.2303080777    -2.2515383530     1.1238928848
 H     -1.4833995484    -0.9156536365     0.7885032728
 F     -1.3117679329    -1.8063062172     0.6537087290
 H     -2.1674469497     2.2653964058     0.4212957365
 F     -2.4090345098     3.0806735131     0.0780062244
 H     -0.7568904043     1.1143652780     1.4153915956
 F     -1.5033804255     0.7828047999     0.9986071217
 H      2.1708108733    -1.3103019966     0.1386774268
 F      2.6277402904    -0.7208782044    -0.3948805373
 H      2.6216604672     0.8470113448     0.1669105657
 F      2.4812552639     1.6846301377     0.5126997162
          14
Energy: -45.37911427637833 Kcal/mole
 H      1.5258799259     1.7888604828     1.6838275874
 F      0.7458299013     1.7922254420     2.1659060418
 H      0.4793462430    -1.6817306495     1.1146869833
 F      1.3495762872    -1.8171939873     1.3701049826
 H     -1.2264669892    -0.3118765588     0.5675216018
 F     -1.0530335693    -1.2112655831     0.5238268453
 H     -1.9599140554     2.8682230282     0.1938586544
 F     -2.1163404530     3.7088650532    -0.1374127870
 H     -0.6072346644     1.6134483310     1.2380927464
 F     -1.3456457181     1.3562329585     0.7590537419
 H      2.5068647296    -1.3029635376     0.2848460822
 F      3.0759639933    -0.8437910901    -0.2684853660
 H      3.0060682964     0.7213554531     0.2602929372
 F      2.8312655615     1.5526218882     0.6057334064
          14
Energy: -45.07564526210216 Kcal/mole
 H      1.6403050306     1.6834213939     1.5402514399
 F      0.9061380550     1.6560338725     2.0890116568
 H      0.5121670397    -1.6020887939     1.2319535947
 F      1.3687048327    -1.6669818165     1.5529222921
 H     -1.0909718180    -0.3404825094     0.6792581827
 F     -0.9514149929    -1.2451523322     0.6246193291
 H     -1.8652667189     2.9367818634     0.2634761054
 F     -1.9244509801     3.8474639767     0.1737860181
 H     -0.5320476787     1.6185497046     1.2410712455
 F     -1.2170118692     1.3646166291     0.6867869765
 H      2.4828227493    -1.3464552948     0.3696696431
 F      3.0233358601    -0.9891179123    -0.2792098312
 H      2.9184665155     0.6496477794     0.0821970891
 F      2.8466542670     1.4978458916     0.4232131642
          14
Energy: -45.34434804393226 Kcal/mole
 H      1.6976740736     1.8131277884     1.5260812993
 F      0.9205367469     1.8803084656     2.0081947010
 H      0.3920411917    -1.9628435898     1.2755746342
 F      1.2580908430    -2.1982829061     1.4637642455
 H     -1.2569547944    -0.4107006609     0.9078175693
 F     -1.0999779421    -1.3139804272     0.8895711552
 H     -2.1059315379     2.8261630328     0.6001795506
 F     -2.3831014345     3.6856844685     0.4411551814
 H     -0.5443372324     1.5934966790     1.3097118029
 F     -1.3230533974     1.3238456647     0.9074948654
 H      2.2652143457    -1.4071950904     0.3840928474
 F      2.7186367779    -0.8493640294    -0.1852239409
 H      3.0456593627     0.7114218509     0.3895213367
 F      3.0978649446     1.5763466391     0.6896357946
          14
Energy: -45.2020099080958 Kcal/mole
 H      1.7059701214     1.9237834958     1.5731319514
 F      0.9088634832     1.9557804772     2.0253334558
 H      0.4346766772    -1.7192300647     1.4362134548
 F      1.3068957992    -1.8786898516     1.6700838880
 H     -1.2073287016    -0.3005705648     0.8913516395
 F     -1.0846176335    -1.2031723552     0.9969025828
 H     -2.2522649086     2.7640206741     0.4773256554
 F     -2.5571185201     3.6104727271     0.2999216039
 H     -0.5869258174     1.6558059861     1.2616524255
 F     -1.3546085882     1.3595782934     0.8569286711
 H      2.2044777366    -1.3151129035     0.4345084907
 F      2.6379431747    -0.8649492397    -0.2365722718
 H      2.9422704151     0.7106030677     0.2725286205
 F      3.0083643654     1.5416048976     0.6545712207
          14
Energy: -45.42843474763697 Kcal/mole
 H      1.5826978414     1.8538479400     1.5247994642
 F      0.8318599249     1.9041305933     2.0488253012
 H      0.3597817784    -1.7359998012     1.3410366936
 F      1.2016749091    -1.8963035948     1.6672385487
 H     -1.2846985433    -0.3091137023     0.6289725334
 F     -1.0882789370    -1.2047031081     0.6138743738
 H     -1.9402879035     2.9439834184     0.4259730596
 F     -2.1426891052     3.8251613915     0.2728452266
 H     -0.6061486114     1.6413165106     1.2520004543
 F     -1.3391534094     1.3674936849     0.7738644628
 H      2.1771938296    -1.3303921047     0.4747754672
 F      2.6469463601    -0.8927690255    -0.1799821984
 H      2.8795982428     0.6919986854     0.2682586460
 F      2.8978976612     1.5584108898     0.5680652892
          14
Energy: -45.532326186832904 Kcal/mole
 H      1.5937169634     1.8841574478     1.5918036853
 F      0.8102734121     1.9166957382     2.0672471220
 H      0.3203344386    -1.7681904803     1.4805755608
 F      1.2054698170    -1.8956523180     1.6834988021
 H     -1.3688495155    -0.3536754545     0.8952444192
 F     -1.2068268703    -1.2556082109     0.9292292011
 H     -1.9873069606     2.8640699589     0.1729326149
 F     -2.1328376862     3.7145869536    -0.1374391778
 H     -0.6271639169     1.6347297560     1.2689392907
 F     -1.3801367187     1.3599631118     0.8234909199
 H      2.1609853029    -1.3354158308     0.4494204890
 F      2.5827180629    -0.8931332102    -0.2342582094
 H      2.8494105922     0.7134856047     0.2194869392
 F      2.8623480523     1.5580901303     0.5763690172
          14
Energy: -45.62223841263362 Kcal/mole
 H      1.5308993281     1.8645668369     1.5326549689
 F      0.7832506460     1.8937414727     2.0628052201
 H      0.3264621918    -1.6992766642     1.4974773828
 F      1.2071895408    -1.8183972425     1.7233504105
 H     -1.3598198845    -0.3329453581     0.9193321959
 F     -1.2153039269    -1.2358163107     0.9888173089
 H     -1.9478867726     2.8892470124     0.1788129182
 F     -2.0631518672     3.7472512389    -0.1235638424
 H     -0.6435405289     1.6400507303     1.2923418525
 F     -1.3792679773     1.3596808464     0.8222494681
 H      2.1655801633    -1.3273946161     0.4573299284
 F      2.5824743162    -0.8935587171    -0.2346777869
 H      2.8024811662     0.7063576427     0.1879048197
 F      2.7901236988     1.5708988091     0.4933632696
          14
Energy: -45.65294118260469 Kcal/mole
 H      1.5325517852     1.8540387749     1.5356866505
 F      0.7831629870     1.8942999621     2.0626443964
 H      0.3243689999    -1.7009306872     1.5049123390
 F      1.2073005798    -1.8183095004     1.7229560033
 H     -1.3666304458    -0.3342216523     0.9173079226
 F     -1.2149426424    -1.2357486062     0.9889246920
 H     -1.9253963161     2.8701867915     0.1954469396
 F     -2.0672097539     3.7309340550    -0.0872049614
 H     -0.6339079403     1.6275168996     1.2843908475
 F     -1.3797789639     1.3603457372     0.8226712506
 H      2.1527769376    -1.3207722837     0.4535997524
 F      2.5831534977    -0.8939100165    -0.2344799097
 H      2.8024498700     0.7069594445     0.1862058711
 F      2.7901253590     1.5708668849     0.4934533949
