          14
Energy: -45.65294118260469 Kcal/mole
 H      1.5325517852     1.8540387749     1.5356866505
 F      0.7831629870     1.8942999621     2.0626443964
 H      0.3243689999    -1.7009306872     1.5049123390
 F      1.2073005798    -1.8183095004     1.7229560033
 H     -1.3666304458    -0.3342216523     0.9173079226
 F     -1.2149426424    -1.2357486062     0.9889246920
 H     -1.9253963161     2.8701867915     0.1954469396
 F     -2.0672097539     3.7309340550    -0.0872049614
 H     -0.6339079403     1.6275168996     1.2843908475
 F     -1.3797789639     1.3603457372     0.8226712506
 H      2.1527769376    -1.3207722837     0.4535997524
 F      2.5831534977    -0.8939100165    -0.2344799097
 H      2.8024498700     0.7069594445     0.1862058711
 F      2.7901253590     1.5708668849     0.4934533949
