          4
Energy: -1.6370509958503983 Kcal/mole
 Xe    -4.0426670673    -0.6864011582     0.0290769953
 Xe    -1.5529421509    -3.1962570777    -2.2079745984
 Xe    -6.1261499996    -4.5106523538    -0.3128790829
 Xe    -0.6761606708    -6.4674683960     1.2104920025
          4
Energy: -1.3467783009444603 Kcal/mole
 Xe    -4.1345514173     0.1582708488     2.4315712443
 Xe     1.1109747661    -5.2064930129     3.3561479710
 Xe     2.7045507723     0.5575436515     1.5221225237
 Xe    -0.1454340331    -1.0521979008     3.9841587479
          4
Energy: -2.1896169596031503 Kcal/mole
 Xe    -7.7519359109     0.4823675458    -0.4089976732
 Xe    -2.9739199910     0.7544130568    -1.5819827863
 Xe    -5.9310027455     3.9397601045    -2.7536047580
 Xe    -5.6624373769    -1.4532934945    -4.0189780392
          4
Energy: -2.2720089809217825 Kcal/mole
 Xe    -4.3213804553     4.2107568619     2.8215529652
 Xe    -4.1424007795     0.2803329401     0.5796311089
 Xe    -2.7026180822     0.7365887653     5.2868531864
 Xe    -6.7718503806    -0.2654833049     4.1962453522
          4
Energy: -1.9138789351493548 Kcal/mole
 Xe    -6.1840567627     2.1003871829     8.7024104875
 Xe    -8.8976367324    -2.0680820888     8.7415533275
 Xe    -4.0591996944    -0.0513017202     5.9980217874
 Xe    -8.5195860001     0.5248064937     4.9552467586
          4
Energy: -2.4797644373189627 Kcal/mole
 Xe    -1.1887979181     0.9850943022     3.1092246436
 Xe    -1.0146707343     3.2955013206    -0.6683145926
 Xe     2.9368936946     2.1315179663     1.5384069497
 Xe    -0.1254195577     5.3022505639     2.9351895837
          4
Energy: -2.45231450600598 Kcal/mole
 Xe    -6.4956356874     5.9431704630     3.1130638499
 Xe    -4.7001003812     3.7210962904    -0.3824596278
 Xe    -7.9169891393     1.6140452983     1.9071961751
 Xe    -3.6576639082     2.7904666293     3.8823646679
          4
Energy: -2.4730634753001364 Kcal/mole
 Xe    -0.1984885515     0.9839747669     3.6436515716
 Xe    -1.5707073629     2.2635726810     7.5104610286
 Xe    -4.6145737010     0.1911377394     4.8839682481
 Xe    -3.1890035032     4.3451651571     3.5780383483
          4
Energy: -2.5780814133607146 Kcal/mole
 Xe     3.4576122784     1.7811206935     4.7581694109
 Xe     0.2035430546     2.1842015788     7.7623197541
 Xe    -0.4840563321    -0.4124605939     4.2098484947
 Xe    -0.1401388596     3.9471747845     3.7080776697
          4
Energy: -2.5979437059577197 Kcal/mole
 Xe     3.3844028136     1.6779016749     4.5909819096
 Xe     0.2927400988     2.0833703791     7.7191943174
 Xe    -0.4768733116    -0.4123827058     4.1548411595
 Xe    -0.2840795097     3.9869003620     3.7744628319
