          4
Energy: -0.4295965800983857 Kcal/mole
 Xe    -0.1874117922    -7.3218469658    -6.6874058825
 Xe     2.4738642994    -4.9032120742    -3.9254251982
 Xe     1.1052145205     0.3485106812     8.2507276805
 Xe    -8.8677391160    -3.5853297860     3.5528026142
          4
Energy: -0.015473128713458207 Kcal/mole
 Xe    -0.7274546249    -2.3251146255    -3.7188976905
 Xe    -6.1701817068    -6.0435644731     8.1078556251
 Xe     5.2912885463     5.5653584285    -2.1591139313
 Xe    -7.5094414557     4.0347227700    -7.0121367871
          4
Energy: -0.623928295053217 Kcal/mole
 Xe     7.1609867256    -4.9202062264    -0.2443024836
 Xe     6.0325293417    -6.2937199831     3.6452850977
 Xe     6.8473818606    -0.5982275338     5.0006416739
 Xe    -3.7816244139    -7.2205445103     4.1975875786
          4
Energy: -0.024969158614434883 Kcal/mole
 Xe     8.5234033739     6.7360245861    -5.4855481199
 Xe     3.8755958507    -1.8417621312     6.3670370358
 Xe    -1.1411668391     3.6290972095     3.1077298611
 Xe     3.6638771115    -8.4928289462    -8.2783486896
          4
Energy: -1.3533199914634784 Kcal/mole
 Xe     2.1017493645    -5.6600076440     0.2518459084
 Xe    -0.1117018460    -4.5885024652     4.6334421699
 Xe     2.3098476329     0.5339854476     7.4029393821
 Xe     4.0051171772    -1.9723126748     4.0043518194
          4
Energy: -1.2338801204846919 Kcal/mole
 Xe    -1.7592673910     4.7335786743    -7.7940826125
 Xe    -0.9673642522     4.7463354683    -1.9577934039
 Xe     1.3085593634     5.2860029446     1.7547154955
 Xe    -3.9295329929     3.9308038292     1.2830166757
          4
Energy: -2.10183418118007 Kcal/mole
 Xe    -4.0480894980     2.4739195003     2.7462268766
 Xe    -3.2560476960     8.8045266777     0.2709795519
 Xe    -3.9291579045     6.5051666508     3.8922841033
 Xe    -5.7923295567     5.1824297351    -0.2932303663
          4
Energy: -2.4909217727671717 Kcal/mole
 Xe    -4.0347499811     5.9682096313    -0.4800197762
 Xe    -7.9860472640     8.3222224043     0.1268792773
 Xe    -8.0302033778     3.9711683231    -0.4641690229
 Xe    -6.0185994685     5.4029107035     3.2097706548
          4
Energy: -2.3368990902735085 Kcal/mole
 Xe    -5.7209940944     6.8096503026     2.9179287951
 Xe    -4.4905490056     3.7742155944    -0.4718863073
 Xe    -6.4235855975     8.3833086008    -1.4294680090
 Xe    -2.4310518757     7.8500770086     0.0580946842
          4
Energy: -2.597711230589821 Kcal/mole
 Xe    -5.5971136593     6.4894729221     2.9183475990
 Xe    -4.4738515149     3.7930366429    -0.3995256238
 Xe    -6.4694694338     7.6493618330    -1.2427588024
 Xe    -2.2852286038     7.5703186225     0.1977095402
