          4
Energy: -1.2778288687574129 Kcal/mole
 Xe    -7.9072998923    -4.8155969103     2.1807873312
 Xe    -9.0242166336    -1.5302525499     5.0226055624
 Xe    -4.2198947812    -1.6518999185     6.4805867797
 Xe    -5.5513841539    -8.3877900277     2.2320343753
          4
Energy: -1.4355761576538713 Kcal/mole
 Xe    -5.7956689399     4.7236045689    -0.5284282148
 Xe    -4.2766870456     2.8801986724     3.6665904365
 Xe    -3.2158137192    -1.6454656773     4.6540245459
 Xe    -8.1704360860     6.3293494389     3.0214121497
          4
Energy: -0.8646550254800334 Kcal/mole
 Xe    -6.8911210479     2.5742878986     5.3816649427
 Xe    -3.3495798610     4.7910614990     6.2183763413
 Xe    -6.5903715390     8.4747553871     5.2963468931
 Xe     4.3286875574    -0.7288393338    -1.9184571111
          4
Energy: -1.0619360721155355 Kcal/mole
 Xe     1.0066923760    -3.8836042474     1.8693630544
 Xe    -4.3724284646     0.8975758256     3.3325348445
 Xe    -8.0345675701     1.5745045766     1.0029413467
 Xe    -7.6519970274    -2.6399605011    -0.0064522980
          4
Energy: -1.8973749706904453 Kcal/mole
 Xe    -2.7172602325    -3.6925702248     2.7951018099
 Xe    -2.3552295379     0.9594211559     2.9849366363
 Xe    -0.1601564252    -1.6469762471    -0.3529306294
 Xe    -1.3916151449    -0.7908815536     7.0283119998
          4
Energy: -2.4780674921501014 Kcal/mole
 Xe    -8.0725152264     3.7843017218    -5.4449532864
 Xe    -7.6670090085     7.1029276492    -8.7473568663
 Xe    -4.7415803398     6.5762696890    -5.2549607984
 Xe    -4.8819401787     3.3650350474    -8.2706932229
          4
Energy: -2.3288574125081767 Kcal/mole
 Xe    -7.3351050243     4.9535863127    -8.4113218279
 Xe    -6.0670605583     6.8597924408    -4.7441085492
 Xe    -5.7959726841     2.0908850927    -4.2754517167
 Xe    -3.1536627108     4.4575163776    -7.1120516032
          4
Energy: -2.4678291894764457 Kcal/mole
 Xe    -3.2360043457     4.5538854960    -1.0537112866
 Xe    -2.0545305810     6.5226523706    -4.8606771082
 Xe    -5.8484400301     3.8558442912    -4.5792407011
 Xe    -5.2170994668     8.1684494166    -2.3886376874
          4
Energy: -2.55213569988516 Kcal/mole
 Xe    -1.0996763289     4.9751982087    -2.0293538248
 Xe     0.3312491244     7.9715579566    -5.1574799042
 Xe    -3.6674507625     8.3866352633    -3.0648725683
 Xe     0.1794639653     8.8732295536    -0.7862326463
          4
Energy: -2.597837197980766 Kcal/mole
 Xe    -0.9975736291     4.9382774431    -2.2429644463
 Xe     0.2244260187     8.0067612980    -5.1817580770
 Xe    -3.6400009057     8.3924082235    -3.0544065470
 Xe     0.1526925617     8.9794815259    -0.8729614832
