          4
Energy: -1.5328821554520542 Kcal/mole
 Xe     6.7900155786    -6.9443832783     1.4845517011
 Xe     0.3089642868    -6.2267667525     7.4037781039
 Xe     3.8626717312    -8.4759361292     4.3843409769
 Xe     4.9087260807    -6.2350166327     7.6925519254
          4
Energy: -0.42284359214363415 Kcal/mole
 Xe     1.0136547935    -4.6128857431    -3.2504415673
 Xe     1.4300953745    -0.2084582736    -1.7142064999
 Xe    -7.2921424690    -1.4110665883     5.6579116523
 Xe    -4.5401364207     5.1408157025    -4.1816809288
          4
Energy: -1.2857689748022783 Kcal/mole
 Xe    -1.4668876594     2.0196872930     3.3819872593
 Xe    -3.1079973779    -3.6430372827    -3.3970079440
 Xe    -1.0765360840    -2.2627218272     2.6386127814
 Xe     2.5318450741     0.6720743465     4.1892102221
          4
Energy: -1.8240534685095031 Kcal/mole
 Xe     0.4462558386    -6.9691298692    -1.0652974703
 Xe    -4.2019274177    -6.9205783415    -2.3790454511
 Xe    -5.6320461813    -4.6667619794     1.4638094973
 Xe    -1.3527463241    -3.2446845496     0.8421154260
          4
Energy: -1.5485806169691048 Kcal/mole
 Xe    -4.3316638242     3.1216370631    -5.1737603937
 Xe    -2.5383583952    -0.3968645838    -3.2248226101
 Xe    -6.5376379913    -0.3272250630     0.1165829560
 Xe    -6.8218486125     3.9293162851    -0.7562064070
          4
Energy: -1.2148943582136935 Kcal/mole
 Xe    -0.3007493716     2.7100335081    -3.4797732139
 Xe     0.1378811249     5.2362625942     0.0550769178
 Xe     1.6338948197     7.2926626798    -3.4907808152
 Xe    -5.3503486523     3.5294090086     5.5018527447
          4
Energy: -2.2807668218463513 Kcal/mole
 Xe    -1.9025925495    -2.2075763464    -7.4602435533
 Xe     0.0075996255    -6.1162923532    -6.5123025574
 Xe    -3.9702769458    -3.5587502058    -3.7424389230
 Xe     0.1141012445    -2.6246787491    -3.7281547704
          4
Energy: -2.5171627987889544 Kcal/mole
 Xe     7.5120578780    -4.2659575754    -5.9366591743
 Xe     8.9390259983    -7.7728746261    -4.1350812812
 Xe     7.5729035055    -8.1015911302    -8.2119097742
 Xe     4.6273170873    -7.5183221621    -5.1192814306
          4
Energy: -2.514064855722414 Kcal/mole
 Xe     4.0531311694    -3.4805509577    -7.0302557893
 Xe     4.7674219785    -4.6727321895    -2.7163450275
 Xe     0.4925690344    -4.0344442911    -4.2633706690
 Xe     3.4645826874    -0.5018778827    -3.9650602700
          4
Energy: -2.597921052162526 Kcal/mole
 Xe     3.9810727290    -3.4673208855    -7.0054013113
 Xe     4.8844410725    -4.4588250656    -2.7914742470
 Xe     0.6906107915    -4.0095246010    -4.1155132930
 Xe     3.3079848211    -0.4621297422    -3.8324278282
