          16
Energy: -62.279488634172594 Kcal/mole
 H     -3.1974943453    -6.0121580623    -1.3176891270
 F     -2.2985644870    -5.8572266853    -1.4115527425
 H     -6.3577630809    -5.4038188456     3.8341653287
 F     -6.6835591722    -5.6857421597     3.0246808311
 H     -5.7715765428    -6.6092768319     1.9903335622
 F     -5.2347046814    -7.0884656921     1.4219713179
 H     -2.8012506670    -4.0221542623     1.3162193598
 F     -3.5190973776    -4.1065089448     1.8805502802
 H     -4.9810468109    -6.5087664112    -0.0866553125
 F     -4.7859651564    -6.1623347494    -0.9129828818
 H     -1.7414558547    -4.6584048575    -0.4128070575
 F     -1.5863841303    -4.0206612246     0.2276028261
 H     -3.5016982367    -3.6053140312     3.4615036607
 F     -3.5976852569    -3.4264903830     4.3557617861
 H     -4.8608450604    -4.2967618157     4.9944510642
 F     -5.5796858162    -4.8359776711     5.1772165674
