          16
Energy: -62.21352323400325 Kcal/mole
 H     -1.4587209418     3.5389078067    -3.0093972518
 F     -1.2789706790     4.4221371943    -3.1781713370
 H      0.7414547728     2.2066084012    -5.8529936497
 F      1.3061470324     1.5624723920    -5.5257315933
 H      0.8772636905     0.9213505325    -4.0611398686
 F      0.5158585252     0.6737515006    -3.2555531098
 H     -2.0612898149     6.8193704706    -5.7461580609
 F     -1.5287480803     7.2214098142    -6.3751673352
 H     -0.9171556857     1.4175678370    -2.8894667798
 F     -1.6702504604     1.9305789773    -2.7867203432
 H     -2.3024190473     5.3677947161    -4.0550143679
 F     -2.8118329786     5.9039061421    -4.5972052802
 H     -0.1767761346     6.3466095654    -6.7393734278
 F      0.4980879420     5.7360842602    -6.8520957854
 H      0.0052081226     4.2120768230    -6.5037959266
 F     -0.3264290614     3.3938360729    -6.2560302044
