          16
Energy: -62.30664727307453 Kcal/mole
 H     -3.6585616108    -5.8686439802    -0.3861343240
 F     -3.5688221841    -5.7409653399     0.5174883850
 H     -5.1273781164    -2.4352822512    -1.7404860540
 F     -5.8005253032    -2.5016611754    -2.3596433065
 H     -6.0120169224    -4.0749167147    -2.8236165855
 F     -5.9874391024    -4.9793252544    -2.9730492596
 H     -1.7098601533    -3.1234099921     2.2982800440
 F     -1.9180408112    -2.3316795932     2.7114540861
 H     -4.6212226796    -5.7133261411    -2.4088652004
 F     -3.8471469807    -6.0120689143    -2.0184185742
 H     -2.2276676737    -4.9569342764     1.0702861452
 F     -1.5042027101    -4.4823187083     1.3739759689
 H     -2.7548463817    -1.2767629044     1.7552669602
 F     -3.2430275453    -0.8350802262     1.1169217846
 H     -3.6870323228    -1.8978089615    -0.0413202125
 F     -3.8959254755    -2.5688703328    -0.6303272470
