          16
Energy: -62.30905247713474 Kcal/mole
 H     -3.6557038438    -5.8851059247    -0.3864578148
 F     -3.5573530592    -5.7507689896     0.5153014164
 H     -5.1174295038    -2.4667575907    -1.7414792751
 F     -5.7956824828    -2.5397601800    -2.3542863561
 H     -6.0283971421    -4.1120016872    -2.8107428490
 F     -6.0147699302    -5.0170221909    -2.9578522881
 H     -1.7122850157    -3.1272189863     2.2837435478
 F     -1.9277127394    -2.3379604443     2.6979305222
 H     -4.6436961399    -5.7468017245    -2.4029464365
 F     -3.8648299967    -6.0398314824    -2.0177320912
 H     -2.2153904818    -4.9636689235     1.0630376564
 F     -1.4934019568    -4.4865271119     1.3662822134
 H     -2.7935268098    -1.2870892452     1.7624028795
 F     -3.2952096222    -0.8472895387     1.1332927350
 H     -3.6986156050    -1.9054413937    -0.0401460561
 F     -3.8823479366    -2.5759674862    -0.6380809936
