          16
Energy: -62.24423714461922 Kcal/mole
 H     -3.0509803276    -5.0708227446    -1.7749737923
 F     -2.5606330383    -4.8845615549    -1.0228067196
 H     -4.4847882943    -6.0274267909     1.3147818106
 F     -4.7625611607    -6.8111656852     0.9281494526
 H     -5.4761904376    -6.7794972961    -0.5652304750
 F     -5.7899774122    -6.6799578532    -1.4211034994
 H     -0.3182893812    -2.9571257923     0.9247081766
 F     -0.1346315745    -3.0255124197     1.8205218175
 H     -4.7713852735    -5.9525694312    -2.5087231490
 F     -4.0999247458    -5.5078446266    -2.9471859272
 H     -1.4491470525    -3.6582042705    -0.8496446363
 F     -0.8343486892    -3.0079199927    -0.6495388381
 H     -1.0944288876    -4.0006718596     2.7540633089
 F     -1.7089988302    -4.5472160209     3.1596274412
 H     -3.1946884107    -4.5835993088     2.4523393224
 F     -3.9764152272    -4.5930222761     1.9730655049
