          16
Energy: -62.306276352744405 Kcal/mole
 H     -3.6576568933    -5.8688265380    -0.3842904254
 F     -3.5647286261    -5.7399014141     0.5188328494
 H     -5.1158964458    -2.4596951228    -1.7569945571
 F     -5.7716573129    -2.5280257986    -2.3943308921
 H     -6.0095419951    -4.1029114077    -2.8449861097
 F     -5.9986279798    -5.0092819562    -2.9837748452
 H     -1.7121084089    -3.1306850448     2.2863582230
 F     -1.9271784107    -2.3424252360     2.7026278089
 H     -4.6272471381    -5.7306841815    -2.4127858470
 F     -3.8500121985    -6.0169683856    -2.0192935304
 H     -2.2203612441    -4.9609699164     1.0621851898
 F     -1.4948154861    -4.4869641211     1.3618364189
 H     -2.7744481777    -1.2867988164     1.7576063311
 F     -3.2687816350    -0.8431603056     1.1253814464
 H     -3.7149501497    -1.9076297906    -0.0268113367
 F     -3.9194153074    -2.5825150419    -0.6129963731
