          16
Energy: -62.30742468860183 Kcal/mole
 H     -3.6547215929    -5.8800780069    -0.3804174515
 F     -3.5553090381    -5.7541215135     0.5224342006
 H     -5.1346684861    -2.4621628161    -1.7469531811
 F     -5.8011066900    -2.5340262301    -2.3727205262
 H     -6.0188146455    -4.1054720179    -2.8333861131
 F     -5.9987650131    -5.0104249423    -2.9801758163
 H     -1.7092211537    -3.1299260808     2.2829273226
 F     -1.9241906798    -2.3402237414     2.6965059946
 H     -4.6337691202    -5.7329688995    -2.4059692611
 F     -3.8582491260    -6.0234965872    -2.0122035931
 H     -2.2143597411    -4.9676213318     1.0652186062
 F     -1.4913570321    -4.4895680725     1.3645865471
 H     -2.7843696592    -1.2886348603     1.7567798130
 F     -3.2840665297    -0.8478222099     1.1267986664
 H     -3.7160396094    -1.9091765765    -0.0308501898
 F     -3.9151796295    -2.5813558067    -0.6219570625
