          16
Energy: -62.276524973598825 Kcal/mole
 H     -3.0664673329    -5.5146709494    -0.9224987189
 F     -2.8498333591    -5.5377924670    -0.0317551437
 H     -5.7774855798    -2.5366494569    -0.9297123038
 F     -6.5403272966    -2.7186691832    -1.4049283961
 H     -6.2794464167    -4.0354527284    -2.3569056461
 F     -5.9839532391    -4.7702741829    -2.8190854943
 H     -1.3871533002    -2.9354091519     2.0738161355
 F     -1.7053038943    -2.3503702205     2.7042117639
 H     -4.3960666814    -5.2087500678    -2.6812593233
 F     -3.5148601375    -5.3875064252    -2.5012310157
 H     -1.6479342192    -4.5455846758     0.5136752898
 F     -1.0169476197    -3.9584645578     0.8267805089
 H     -3.0149545264    -1.4486894883     2.2627521810
 F     -3.7523007008    -1.0585814168     1.8819302915
 H     -4.1462818101    -1.8921417191     0.5422057740
 F     -4.2958676724    -2.4315352841    -0.1841327502
