          2
Energy: -0.005243952335886276 Kcal/mole
 Ar    -2.2880370167     4.5986131780    -6.3832242867
 Ar     0.1479835168    -1.7651156295    -2.0747920493
          2
Energy: -7.770494841911646E-5 Kcal/mole
 Ar     6.5367794841     5.4850331193     0.5895283682
 Ar    -4.7613388572    -5.3025164506    -4.0022649870
          2
Energy: -0.005041657867118079 Kcal/mole
 Ar    -3.4040165773    -7.2521300949     6.0419597688
 Ar    -2.5250054615    -1.3711299268     0.5194838060
          2
Energy: -5.850112479927245E-4 Kcal/mole
 Ar    -4.4505865011     0.0818156597     0.0816020304
 Ar     4.1961834724    -6.9897664778    -3.1531873842
          2
Energy: -0.13300913557725785 Kcal/mole
 Ar    -4.2920111204     5.7792493222     6.6783382639
 Ar    -3.3296092854     6.1507452328     2.2342429574
          2
Energy: -0.029594086160976817 Kcal/mole
 Ar     0.7302377986     5.9767007441     0.3254939916
 Ar    -3.7610717941     1.9985030632     0.7416749027
          2
Energy: -7.061032968683894E-4 Kcal/mole
 Ar    -5.4367864288    -4.6603664947     2.0658063261
 Ar     0.1612163692     4.6132145819     5.1762720111
          2
Energy: -0.22407406153744758 Kcal/mole
 Ar     5.9228852251     2.1129280818    -7.1995443637
 Ar     3.7736011438     4.7674304676    -5.1832739491
          2
Energy: -0.2282568983528681 Kcal/mole
 Ar     1.0996966347    -0.8153407472     6.2009495896
 Ar     4.6188146392    -1.7277901108     5.3813541505
          2
Energy: -0.23390000001581912 Kcal/mole
 Ar     1.3089491398    -0.3291003483     6.3751740504
 Ar     4.6299925978    -1.9965442258     5.5014202911
