          2
Energy: -3.4603293255550577E-4 Kcal/mole
 Ar    -4.3917070285    -0.2341695283     5.5478590155
 Ar     4.3949829504    -2.9699539061    -3.1945660293
          2
Energy: -7.219817407235857E-5 Kcal/mole
 Ar    -7.4070683227     5.2996916229    -4.2493508601
 Ar     4.0321380351    -2.0720278002     5.0502050900
          2
Energy: -0.010148782128831805 Kcal/mole
 Ar    -5.9550681752    -1.0675275474    -6.0542950420
 Ar    -5.2011312025     1.4592819397     0.6619074323
          2
Energy: -3.3592923789863526E-4 Kcal/mole
 Ar     4.7334473042    -4.8677986855     4.9271721353
 Ar     3.5835465432     3.5919665791    -4.5507243304
          2
Energy: -0.06296128741448025 Kcal/mole
 Ar    -1.1060470624    -5.6328741449    -5.0152619006
 Ar     3.2226768658    -3.4338397000    -2.9760543399
          2
Energy: -0.19358204833332812 Kcal/mole
 Ar    -2.5575149847    -3.3523006820    -0.3460776321
 Ar    -5.9703369559    -2.7851429003     1.9900911387
          2
Energy: -4.539365538920938E-5 Kcal/mole
 Ar     3.7312705274    -7.3666475053    -4.5330761892
 Ar    -2.2515064246     6.1984964693     5.3322005602
          2
Energy: -0.22929498634127138 Kcal/mole
 Ar    -2.1980516956    -1.9459726533     0.2747201949
 Ar    -1.0369008841    -1.2388950500    -3.2039208281
          2
Energy: -0.22705997749718326 Kcal/mole
 Ar     1.6770175028    -2.4136682592    -5.3852881260
 Ar     3.5333665101    -5.4226674624    -4.2337189680
          2
Energy: -0.23390000006268627 Kcal/mole
 Ar     2.0862845071    -1.8427163015    -4.6217357799
 Ar     3.2638177467    -5.4495904148    -4.2009714259
