          30
Energy: -121.83409327459881 Kcal/mole
 H      2.0711319383     0.0559980205     3.6241445941
 F      1.8858144529     0.8892271516     3.9592201747
 H      1.1855633337     4.1959674286     3.5613824912
 F      1.6844977297     4.8486705222     3.9687301807
 H      3.5399740091    -1.3101749245     2.9751881453
 F      2.6235957118    -1.3265774261     2.9456792622
 H      5.2739214027    -0.0265050413     3.3139187375
 F      5.1539084436    -0.8925854459     3.0375302024
 H      6.1938334315     1.7114634825     6.5703512536
 F      6.0182519974     2.6031621749     6.6925543714
 H      2.8446487339     4.2136225105     4.9555880097
 F      3.4764271945     3.7341797656     5.4158918562
 H      3.7967081563     3.8049922700     2.0862929144
 F      3.5630810990     2.9703953703     2.3858849924
 H      5.4199510826    -0.2415938708     6.1899709090
 F      6.2646664906     0.0816382415     6.3411855940
 H      0.9077043303     2.0722251978     3.2699135146
 F      0.4460554114     2.8214046283     3.0120386291
 H      4.4548197977     5.7621590443     2.5750511158
 F      4.3024086384     5.3280612998     1.7818178671
 H      4.6107530555     2.0986128967     3.3338412707
 F      5.1701906808     1.5595391143     3.8209942246
 H      5.3947967667     5.5864028510     4.4981627541
 F      4.7879509291     6.1746100599     4.1422984418
 H      6.3118515358     3.7505545450     5.5090389929
 F      6.4895638785     4.3912015912     4.8774705600
 H      3.0681329087     2.4399211809     6.3929540843
 F      2.8086903020     1.6756225326     6.8281851838
 H      3.3430896963     0.2415033313     6.1747441719
 F      3.8149106187    -0.4770424318     5.8554230113
