          30
Energy: -121.60560022881047 Kcal/mole
 H      2.2573499781    -2.6807632683     5.0028203091
 F      1.8400981962    -1.8644700799     5.0241599704
 H     -1.0361868154    -0.6532836017     3.0989166014
 F     -1.1846749052     0.1039036235     2.6034291715
 H      2.7337811836    -4.5105905142     3.8942989987
 F      2.9199269827    -4.1602312216     4.7210317896
 H      1.7666559139    -4.2071952150     1.9609802302
 F      2.1610024795    -4.9151133338     2.3902024610
 H      4.0859232184    -1.5370778370     3.2815848884
 F      3.5724768572    -1.8038119558     2.5701674694
 H     -0.7094808818     1.3922903670     3.5165199154
 F     -0.3728429164     2.0289600793     4.0841602573
 H     -1.6256812509    -1.8344231498     0.4762988375
 F     -1.5218693998    -2.5653491560     1.0202283119
 H      4.3382836946    -0.2619944566     5.1132404605
 F      4.7970974620    -0.8765209209     4.6105117548
 H      0.2997066368    -1.8753607976     4.4557315272
 F     -0.5286740446    -1.9101743231     4.0639886714
 H     -0.7367885197    -0.0186067238    -0.2906325287
 F     -1.4844750612    -0.5077080953    -0.4971117868
 H      0.0602090743    -2.8253409027     1.3044141505
 F      0.9680020319    -2.8396953714     1.4332353261
 H      1.1161764092     0.4481591793     0.9909042410
 F      0.7207026130     0.6398628756     0.1860817951
 H      2.4031953151    -0.6459248752     2.4272843220
 F      1.8028493249     0.0469062129     2.4487033673
 H      1.2208160680     2.4223928072     4.3125075735
 F      2.1101608246     2.5889995402     4.4614944871
 H      2.9887383497     1.5561531625     5.3975451428
 F      3.4577241454     0.9301442846     5.8761412232
