          30
Energy: -1.9859695998916322 Kcal/mole
 H     -3.1988673890     1.3446276471     3.9616927632
 F     -3.3111354931     2.2547292199     3.9616927632
 H      3.1012369896    -1.8613762432     2.4860116765
 F      4.0182369896    -1.8613762432     2.4860116765
 H     -2.3323960991    -0.9944709107     0.3040992632
 F     -1.4153960991    -0.9944709107     0.3040992632
 H     -3.4659515440    -4.3849249201     0.3421854528
 F     -3.3165158842    -4.3849249201     1.2469273958
 H      2.2542229195    -0.4180349118    -1.2573483788
 F      3.1712229195    -0.4180349118    -1.2573483788
 H     -0.5755352599     3.9961737689     2.4554966754
 F     -0.1503634802     4.8086502041     2.4554966754
 H     -1.2944315565    -4.1522951724    -3.5615630372
 F     -0.3774315565    -4.1522951724    -3.5615630372
 H      4.9296623915    -1.7865355595    -4.8821642994
 F      5.8466623915    -1.7865355595    -4.8821642994
 H      2.7057180986    -4.4255240906     1.0519655846
 F      1.7963957680    -4.4255240906     1.1703796846
 H     -4.4574619162     4.0275928739     1.1507342841
 F     -4.1095239167     4.8760197408     1.1507342841
 H     -1.4278669545     2.0853162977    -2.4405658006
 F     -1.7579238134     2.0853162977    -1.5850241769
 H      3.5197101364     2.5784229317     4.8083794254
 F      4.4367101364     2.5784229317     4.8083794254
 H      5.0146347215    -5.2097585657     4.3435541811
 F      5.8678102617    -4.8736328488     4.3435541811
 H      4.5212785279     3.0457190105    -4.3096790586
 F      5.4382785279     3.0457190105    -4.3096790586
 H     -4.5132490942     2.7614636440    -4.6057760901
 F     -3.5962490942     2.7614636440    -4.6057760901
