          30
Energy: -121.81693615337149 Kcal/mole
 H      2.0731219817     0.1151522521     3.6030349108
 F      1.8612850881     0.9285184851     3.9697084733
 H      1.1386356008     4.1603498582     3.5369579805
 F      1.6426780792     4.7995092988     3.9592202087
 H      3.5528075942    -1.2165259266     2.8694212229
 F      2.6360258618    -1.2211677471     2.8499607861
 H      5.3224333948     0.0093455244     3.2056851190
 F      5.1679659415    -0.8481619928     2.9198360961
 H      6.2329853881     1.7138267639     6.5021902811
 F      6.0262972228     2.5955211704     6.6463567680
 H      2.8132246753     4.1729107095     4.9336335458
 F      3.4575352251     3.7115172460     5.3950108179
 H      3.7713784163     3.8291505658     2.0756815106
 F      3.5842905859     2.9819271665     2.3724973717
 H      5.4929380466    -0.2295111139     6.0863928920
 F      6.3407719256     0.0856764069     6.2371361849
 H      0.8609203870     2.0730086691     3.2368312109
 F      0.3953306123     2.8111065571     2.9551813051
 H      4.3590355088     5.8053684098     2.5781419519
 F      4.1965302025     5.3826343732     1.7807857205
 H      4.6923324734     2.1371726003     3.2741051546
 F      5.2755253263     1.5985223747     3.7330507186
 H      5.3340091482     5.6125255273     4.4962403532
 F      4.7195386838     6.1952683606     4.1444935144
 H      6.2866045066     3.7744733702     5.4883348139
 F      6.4465739911     4.4337135142     4.8713249303
 H      3.0806225078     2.4231013461     6.3908208739
 F      2.8502922155     1.6543256515     6.8344658759
 H      3.4023799589     0.2596595111     6.1222838075
 F      3.8780633595    -0.4356743236     5.7601717244
