          30
Energy: -121.83066732079575 Kcal/mole
 H      2.0652645933     0.0504307148     3.6426718511
 F      1.8711377843     0.8798162326     3.9822649088
 H      1.1631964765     4.1799834933     3.5903328085
 F      1.6534277149     4.8329541955     4.0076954745
 H      3.5442106747    -1.3004477836     2.9659799432
 F      2.6277185833    -1.3203944929     2.9428850291
 H      5.2833292260    -0.0182852386     3.2976340432
 F      5.1570444036    -0.8831755361     3.0203148825
 H      6.2044613422     1.7128051986     6.5574299152
 F      6.0287263903     2.6037866044     6.6845454576
 H      2.8294681558     4.2177459552     4.9779343371
 F      3.4744227132     3.7521899238     5.4342020222
 H      3.7616967391     3.8130679953     2.0958536530
 F      3.5459669059     2.9740956615     2.3966443812
 H      5.4282297656    -0.2438050229     6.1744583262
 F      6.2740673043     0.0786862744     6.3209070247
 H      0.8972737107     2.0646016140     3.2780006767
 F      0.4381895773     2.8136036876     3.0150811980
 H      4.4269661199     5.7716032802     2.5791515028
 F      4.2389681934     5.3445101940     1.7897610574
 H      4.6185375817     2.1106639205     3.3295934951
 F      5.1864996929     1.5738636384     3.8093366528
 H      5.4178047549     5.5828227696     4.4873943985
 F      4.8170703930     6.1774801130     4.1318808679
 H      6.3205022784     3.7462861241     5.5081768579
 F      6.4987153740     4.3866730079     4.8764856900
 H      3.0958385603     2.4458963342     6.4146395784
 F      2.8483180811     1.6769284070     6.8485876619
 H      3.3590501433     0.2466778442     6.1789310385
 F      3.8226897297    -0.4728457292     5.8499733494
