          30
Energy: -121.83618825948686 Kcal/mole
 H      2.0762198351     0.0596035160     3.6250993134
 F      1.8931518355     0.8928542172     3.9613557284
 H      1.1835788499     4.1913801004     3.5600598252
 F      1.6840581117     4.8429785815     3.9672808070
 H      3.5404485768    -1.3066039752     2.9701350851
 F      2.6240892670    -1.3213307623     2.9391877586
 H      5.2763650331    -0.0266815149     3.3133987094
 F      5.1537788147    -0.8925760844     3.0375577887
 H      6.1944278036     1.7078174498     6.5701796877
 F      6.0144786283     2.5987299938     6.6917614838
 H      2.8437377605     4.2112673148     4.9543941459
 F      3.4764755195     3.7343047033     5.4159551879
 H      3.7971642145     3.8034807894     2.0791263367
 F      3.5656176757     2.9677878035     2.3772746785
 H      5.4238788581    -0.2494394794     6.1929958816
 F      6.2689013694     0.0732891936     6.3435686520
 H      0.9063571118     2.0708170873     3.2694187994
 F      0.4415774870     2.8181384604     3.0117762842
 H      4.4535385181     5.7620426709     2.5738060508
 F      4.2991926068     5.3298382678     1.7799133039
 H      4.6163212708     2.0990400206     3.3298270553
 F      5.1775281917     1.5620675838     3.8172656607
 H      5.3922863025     5.5861445876     4.5019858493
 F      4.7880841034     6.1746237602     4.1420956355
 H      6.3042261178     3.7505470236     5.5156895910
 F      6.4822507552     4.3952708920     4.8883719983
 H      3.0768699876     2.4382850088     6.3995903604
 F      2.8217558699     1.6739784946     6.8373589515
 H      3.3489888262     0.2417435293     6.1803934737
 F      3.8170139210    -0.4782165009     5.8586807672
