          30
Energy: -121.78350071041281 Kcal/mole
 H      2.0100995939    -0.0257565649     3.0582624843
 F      1.7794366599     0.7614880555     3.4680545273
 H      0.9328100595     4.0931794326     3.4099472454
 F      1.4113565935     4.7495715873     3.8354252755
 H      3.5661820924    -1.2315322597     2.2950632427
 F      2.6528482600    -1.3045652978     2.2579622202
 H      5.2190337102     0.1245604413     2.7475303564
 F      5.1501164333    -0.7259345777     2.4116767700
 H      6.0918656388     1.6158900080     6.1076962309
 F      5.8912707880     2.4848553868     6.3211204006
 H      2.6360331364     4.1393607431     4.7661821643
 F      3.3006071670     3.6715839665     5.1909353221
 H      3.4895665793     3.9387493676     1.8216377489
 F      3.2845802350     3.0843806842     2.0841710828
 H      5.3660660628    -0.3238005603     5.5722464176
 F      6.2058517298     0.0176281407     5.7103604125
 H      0.7332257051     1.9741031482     2.9616421825
 F      0.2300887128     2.7247490226     2.8058444346
 H      4.1374635825     5.8591435559     2.4063302331
 F      3.9671586107     5.4813547634     1.5883077121
 H      4.4032513152     2.2026232346     2.9243918705
 F      5.0079838241     1.6701408671     3.3621704915
 H      5.1173141197     5.5772627904     4.3145759964
 F      4.4911633449     6.1623317732     3.9882042872
 H      6.1137276560     3.7368910949     5.2318354662
 F      6.2616241187     4.4282024810     4.6477941973
 H      2.9413038681     2.2804936108     6.0372197690
 F      2.6974638981     1.4706254257     6.3915424918
 H      3.2728052751     0.0902547655     5.6461889907
 F      3.7645445670    -0.5938597204     5.2841546844
