          30
Energy: -121.78733315234487 Kcal/mole
 H      2.2166385537     0.1579797539     3.0404750903
 F      2.0055816217     0.9777445551     3.3930791773
 H      1.3851426178     4.3246353584     3.0819632370
 F      1.8714921654     4.9509563551     3.5424793894
 H      3.7276765518    -1.1920652541     2.4324935214
 F      2.8138769639    -1.2073238826     2.3574836059
 H      5.4786367176     0.0510400276     2.8992201030
 F      5.3400177919    -0.7953087947     2.5746165535
 H      6.1749115678     1.6382077687     6.3236710574
 F      5.9437829250     2.5079967753     6.4995563453
 H      2.9080629859     4.2216164968     4.5878198017
 F      3.4806315312     3.6960040484     5.0744262289
 H      4.1163348812     3.9224304990     1.7945359719
 F      3.8665444941     3.0738874823     2.0363386009
 H      5.4918916993    -0.2803630202     5.7507745995
 F      6.3259889584     0.0287160335     5.9735769805
 H      1.0933637803     2.2160809308     2.6953529529
 F      0.6614867999     2.9849419674     2.4439091615
 H      4.7111457849     5.8619115106     2.4235311472
 F      4.6339446688     5.4600507437     1.6028991275
 H      4.8777856034     2.1808110842     2.9868234490
 F      5.4197241442     1.6236233799     3.4733760979
 H      5.4856683389     5.6098916990     4.4186695409
 F      4.9080089823     6.2095820195     4.0345208884
 H      6.3253718854     3.7198638325     5.4263864964
 F      6.5489760362     4.3967236805     4.8495408238
 H      3.0244106154     2.3545138134     5.9703114647
 F      2.7641746834     1.5648386501     6.3570664209
 H      3.3955364463     0.2095382574     5.6540358293
 F      3.9020155693    -0.4707656975     5.3053892649
