          4
Energy: 57.77774239098914 Kcal/mole
 H      3.7387938289     3.7267388506     3.7400782543
 F      3.0138366030     3.4843916312     3.2335273231
 H     -3.7306158776    -3.6111818302    -3.7486514481
 F     -2.8479413301    -3.5007055306    -3.5260090660
          4
Energy: 57.36864519324298 Kcal/mole
 H      3.7136575395     3.7276619559     3.7232976015
 F      2.9992000945     3.6676965709     3.1515951336
 H     -3.7181889346    -3.7487526485    -3.7476272812
 F     -2.8377874842    -3.5438054818    -3.5934230493
          4
Energy: 57.19502599890487 Kcal/mole
 H      3.7029017673     3.7213088463     3.7350538593
 F      3.0396954840     3.7435093685     3.1021608488
 H     -3.7345830257    -3.7172222675    -3.7363781498
 F     -2.8425672646    -3.6767987300    -3.5276610696
          4
Energy: 56.940597604800516 Kcal/mole
 H      3.7119079348     3.7295958221     3.7485692086
 F      3.0197344746     3.7373651527     3.1471338103
 H     -3.7476487249    -3.7490268771    -3.7491693026
 F     -2.8486459871    -3.7014814289    -3.5747488112
          4
Energy: 56.94902330614484 Kcal/mole
 H      3.7478568050     3.7081266772     3.7382101805
 F      3.0046869115     3.7106454711     3.2010126702
 H     -3.7486535742    -3.7272248774    -3.7484938120
 F     -2.8485926822    -3.7026379746    -3.5747846444
          4
Energy: 56.979432995984176 Kcal/mole
 H      3.7416777745     3.7371756359     3.7459710483
 F      3.0050146948     3.7091044909     3.2006009741
 H     -3.7021057121    -3.7339403218    -3.7405247423
 F     -2.7972567817    -3.7232324561    -3.5921240864
          4
Energy: 56.866760380136604 Kcal/mole
 H      3.7488964805     3.7418694518     3.7358074141
 F      3.0046317591     3.7088554948     3.2011401314
 H     -3.7483670685    -3.7431750956    -3.7372762768
 F     -2.8466757204    -3.7323331594    -3.5707705258
          4
Energy: 56.84764224403173 Kcal/mole
 H      3.7442843310     3.7433670527     3.7420733021
 F      3.0048764230     3.7087760506     3.2008077405
 H     -3.7465392227    -3.7482767719    -3.7464817240
 F     -2.8467726834    -3.7320625273    -3.5702821981
          4
Energy: 56.85576205492493 Kcal/mole
 H      3.7484304284     3.7366071964     3.7367527290
 F      3.0046564821     3.7091346453     3.2010899846
 H     -3.7464438102    -3.7493841122    -3.7468629246
 F     -2.8467777448    -3.7320037854    -3.5702619763
          4
Energy: 56.834275022549505 Kcal/mole
 H      3.7386377303     3.7493846550     3.7492855555
 F      3.0051759621     3.7084568307     3.2004251471
 H     -3.7461177026    -3.7499185368    -3.7484628332
 F     -2.8467950440    -3.7319754354    -3.5701771048
