          4
Energy: 56.98126034655405 Kcal/mole
 H      3.7436003936     3.7176845045     3.7286715149
 F      2.9109062745     3.7044186763     3.3448310250
 H     -3.7318682526    -3.7104703584    -3.6717875972
 F     -2.8162682893    -3.7103628154    -3.6211349010
          4
Energy: 56.70766389933455 Kcal/mole
 H      3.7341810919     3.7466501698     3.7465233064
 F      2.9210738570     3.7183372043     3.3235055757
 H     -3.7465562070    -3.7331835680    -3.7405176246
 F     -2.8320657784    -3.6872999162    -3.6906082429
          4
Energy: 56.864168824698844 Kcal/mole
 H      3.7412680468     3.7390335904     3.7330501758
 F      2.9206979104     3.7187412463     3.3242202942
 H     -3.7302069955    -3.7125193148    -3.6854793266
 F     -2.8181890842    -3.6349356266    -3.7410949793
          4
Energy: 56.72510189498607 Kcal/mole
 H      3.7387938095     3.7450849983     3.7422345018
 F      2.8954452995     3.7147961639     3.3834380733
 H     -3.7283696598    -3.7435292394    -3.7173760901
 F     -2.8182865506    -3.6332906218    -3.7394029297
          4
Energy: 56.66040940722636 Kcal/mole
 H      3.7470181447     3.7412245151     3.7225387581
 F      2.8950090175     3.7150009536     3.3844828870
 H     -3.7349250310    -3.7438130788    -3.7442768195
 F     -2.8201401971    -3.6952439789    -3.7030609212
          4
Energy: 56.637588066809705 Kcal/mole
 H      3.7472887097     3.7480577132     3.7298116033
 F      2.9013075806     3.7140450792     3.3776070179
 H     -3.7345788481    -3.7465543844    -3.7484137937
 F     -2.8201585613    -3.6950985590    -3.7028414643
          4
Energy: 56.64916619293401 Kcal/mole
 H      3.7426158047     3.7406526054     3.7414342823
 F      2.9015554674     3.7144379030     3.3769904617
 H     -3.7334772300    -3.7432508211    -3.7418926007
 F     -2.8187668819    -3.6829825404    -3.7181921077
          4
Energy: 56.62685074103106 Kcal/mole
 H      3.7406749949     3.7495169336     3.7451368793
 F      2.9016584229     3.7139676709     3.3767940474
 H     -3.7331407501    -3.7458641291    -3.7474043500
 F     -2.8187847314    -3.6828439104    -3.7178997222
          4
Energy: 56.62649356198324 Kcal/mole
 H      3.7398381248     3.7498668857     3.7470031845
 F      2.9017028169     3.7139491068     3.3766950443
 H     -3.7332210147    -3.7446994936    -3.7473801930
 F     -2.8187804735    -3.6829056916    -3.7179010036
          4
Energy: 56.615694907183986 Kcal/mole
 H      3.7387547607     3.7499253431     3.7494394292
 F      2.9017602869     3.7139460057     3.3765658071
 H     -3.7327634535    -3.7499284018    -3.7499984089
 F     -2.8188047461    -3.6826283101    -3.7177621133
