          4
Energy: 56.633716073552336 Kcal/mole
 H      3.7417788883     3.7228098991     3.7441773188
 F      2.9015998639     3.7153844174     3.3768449499
 H     -3.7434183586    -3.7384641878    -3.7391291511
 F     -2.8274804714    -3.7099402492    -3.7054665337
          4
Energy: 56.60998582683604 Kcal/mole
 H      3.7447300260     3.7352170741     3.7368667997
 F      2.9014433129     3.7147262454     3.3772327561
 H     -3.7429422758    -3.7427270902    -3.7471714581
 F     -2.8275057265    -3.7097141121    -3.7050399079
          4
Energy: 56.6250226600439 Kcal/mole
 H      3.7401029175     3.7138193582     3.7480510206
 F      2.9016887703     3.7158613448     3.3766394590
 H     -3.7428394835    -3.7424389788    -3.7495583230
 F     -2.8275111794    -3.7097293958    -3.7049132903
          4
Energy: 56.58010263558134 Kcal/mole
 H      3.7420964291     3.7358892562     3.7314133488
 F      2.8914823381     3.7407150853     3.3888912625
 H     -3.7407982711    -3.7495091008    -3.7350034977
 F     -2.8251048265    -3.7044361767    -3.7159523286
          4
Energy: 56.52035597118046 Kcal/mole
 H      3.7399159556     3.7477201252     3.7367290839
 F      2.8915980072     3.7400874850     3.3886092750
 H     -3.7302951135    -3.7498626829    -3.7459243143
 F     -2.8137796366    -3.7385320039    -3.7183562842
          4
Energy: 56.47052511963559 Kcal/mole
 H      3.7431113405     3.7493251669     3.7440165711
 F      2.8855826264     3.7478338115     3.4191607872
 H     -3.7304237523    -3.7411468003    -3.7436827663
 F     -2.8137728126    -3.7389943613    -3.7184751931
          4
Energy: 56.48311354315065 Kcal/mole
 H      3.7409719791     3.7479268495     3.7496090298
 F      2.8856961146     3.7479079890     3.4188641202
 H     -3.7302686495    -3.7265855411    -3.7460226550
 F     -2.8137810404    -3.7397668024    -3.7183510675
          4
Energy: 56.470713957588686 Kcal/mole
 H      3.7438503412     3.7443912878     3.7420418048
 F      2.8855434241     3.7480955424     3.4192655440
 H     -3.7302439787    -3.7415893801    -3.7494764000
 F     -2.8137823492    -3.7389708835    -3.7181678543
          4
Energy: 56.44984827317339 Kcal/mole
 H      3.7408691328     3.7493507237     3.7498715455
 F      2.8857015703     3.7478324558     3.4188501943
 H     -3.7301910025    -3.7488260153    -3.7495410616
 F     -2.8137851594    -3.7385869967    -3.7181644241
          4
Energy: 56.44781895879787 Kcal/mole
 H      3.7408691328     3.7498192671     3.7498690473
 F      2.8857015703     3.7478076007     3.4188503269
 H     -3.7301754539    -3.7499927667    -3.7495915513
 F     -2.8137859843    -3.7385251032    -3.7181617458
