          10
Energy: -37.88540356585332 Kcal/mole
 H      0.6490706260     0.3470851955     5.2703519188
 F     -0.2589558240     0.4064957544     5.1570057605
 H      2.6903593228     0.1917666472     4.3415980001
 F      2.3034137675     0.2366373172     5.1717478421
 H      0.2433936062     0.3541598930     1.6560528311
 F      1.0429669107     0.2810188568     1.2130833969
 H      2.4382652756     0.1777958532     2.1081096957
 F      3.1060833359     0.1307440224     2.7347628401
 H     -0.8622728039     0.4588665143     3.6104634637
 F     -1.0346664315     0.4747776486     2.7099545670
