          10
Energy: -37.883476169801014 Kcal/mole
 H      0.6756780483     0.1766892145     5.3153548234
 F     -0.2339017337     0.1829548575     5.1991035360
 H      2.7171733417     0.0167865889     4.3973780964
 F      2.3321835844     0.1535216924     5.2183381430
 H      0.3026832231     0.1514697204     1.6890693314
 F      1.1045372922     0.0782631719     1.2502529085
 H      2.4781762065    -0.1215470950     2.1670923334
 F      3.1303634687    -0.2136573321     2.8051021133
 H     -0.8189761712     0.2455321228     3.6458106236
 F     -0.9806000290     0.2681756475     2.7434503855
