          10
Energy: -37.88479215106017 Kcal/mole
 H      0.6426903737     0.3545124545     5.2724217119
 F     -0.2658316360     0.4103178639     5.1612348685
 H      2.6857149648     0.1972922724     4.3402636038
 F      2.2977535524     0.2487236789     5.1695583360
 H      0.2442873822     0.3495573696     1.6582764423
 F      1.0433204253     0.2826801503     1.2133465223
 H      2.4360222017     0.1737475915     2.1062491547
 F      3.1037066348     0.1237494296     2.7328165346
 H     -0.8630159910     0.4499661063     3.6149454111
 F     -1.0332735081     0.4595330382     2.7139404989
