          10
Energy: -37.88483058524625 Kcal/mole
 H      0.6459006399     0.3350691143     5.2723725761
 F     -0.2606591086     0.4092471859     5.1560281045
 H      2.6944600063     0.1673564164     4.3503681346
 F      2.3002322620     0.1993967438     5.1776811969
 H      0.2646583833     0.3461908175     1.6600077409
 F      1.0661595374     0.2720703484     1.2207002676
 H      2.4576721934     0.1756541061     2.1169481432
 F      3.1241402291     0.1313975664     2.7452400468
 H     -0.8526402420     0.4562059212     3.6065149011
 F     -1.0189214687     0.4684845830     2.7048005405
