          10
Energy: -37.88020722572239 Kcal/mole
 H      0.7397250795     0.3764859139     5.0569577107
 F     -0.1152251415     0.0452276687     5.0716918419
 H      2.5140910860     1.0000502264     3.8405731020
 F      2.2697895212     0.9402785689     4.7224081741
 H      0.0252234086    -0.3827304458     1.5554392098
 F      0.7480136924    -0.2406733256     1.0092863188
 H      2.0455680801     0.5579268226     1.6731157273
 F      2.6775016545     0.9820864113     2.1846209578
 H     -0.8427324515    -0.3520082244     3.6284427004
 F     -1.0987327560    -0.5258251799     2.7652274838
