          10
Energy: -37.58087256794394 Kcal/mole
 H      0.3605425402    -0.4592978976     0.7729898615
 F      0.0060800400     0.3734960744     0.6256822377
 H     -0.0117797080    -2.5386357179     1.3589683818
 F      0.6883546377    -2.0458783749     1.0305005768
 H     -3.2326351396    -1.2638141176     0.5459061132
 F     -3.4724457183    -2.0778071951     0.8934620887
 H     -2.2210095955    -2.8716258972     1.5402001259
 F     -1.4320433470    -3.2525657365     1.8109511139
 H     -1.5878089199     0.2646102267     0.1902540478
 F     -2.4407411992     0.0612679109    -0.0781624748
          10
Energy: -37.67886858707922 Kcal/mole
 H      0.8927437750    -0.5068945105    -0.1072721296
 F      0.6451181497     0.1863326404    -0.6540871504
 H      0.2042633984    -2.1741580655     1.3945671360
 F      0.9061760574    -1.8211815947     0.9216874153
 H     -2.6867883117    -0.3843922984     0.5672441871
 F     -2.9717417269    -0.7931565310     1.3370508858
 H     -1.9185821093    -1.9252495896     1.9099277556
 F     -1.2406359045    -2.5042622110     2.1244559068
 H     -1.0250176853     0.2711839633    -0.8376958433
 F     -1.9401918653     0.2256545465    -0.8020266340
          10
Energy: -37.487805698989376 Kcal/mole
 H      1.2914855819     4.395892E-40     0.3937511719
 F      1.0051526429     0.7560745536    -0.0397442129
 H      0.9610607616    -1.7319701010     1.8459455966
 F      1.5968630133    -1.3870201373     1.2823375597
 H     -2.1408803148    -0.3522600954     0.9238230368
 F     -2.3375284141    -0.9614195396     1.5804380660
 H     -1.1409284536    -1.9358468288     2.2517725735
 F     -0.3853457567    -2.3281654923     2.5924628353
 H     -0.6181532846     0.9194255969    -0.1855093019
 F     -1.5289217318     0.8204606523    -0.1455621471
          10
Energy: -37.57702656480649 Kcal/mole
 H      1.1782624168     0.3896141978     0.7306951676
 F      0.9255682760     1.0008652314     0.0955519987
 H      0.6794573695    -1.3927064644     2.0439303703
 F      1.3334483574    -0.7862764677     1.8307932152
 H     -2.3947332886    -0.3762598293     0.6348285236
 F     -2.7263093628    -1.0340630130     1.1809432356
 H     -1.5122820541    -1.8698935958     1.8931808721
 F     -0.7548685701    -2.2449847572     2.2488779834
 H     -0.7017936250     0.9708923639    -0.1871169411
 F     -1.6100136663     0.8525303901    -0.2320145989
          10
Energy: -37.64489649774575 Kcal/mole
 H      1.7837154538     0.7658216846     1.2055021851
 F      1.5676043928     1.2660477604     0.4679665029
 H      1.2653857546     0.2201999537     3.2628484167
 F      1.9438206451     0.0093297123     2.6830649738
 H     -1.7140032992     1.3815097743     1.5960069827
 F     -1.9907294131     1.2388247311     2.4585338729
 H     -0.8309075100     0.9290181425     3.6840447082
 F     -0.0415327477     0.7644969663     4.1207474300
 H     -0.0693644930     1.5029575522     0.1226440100
 F     -0.9842452235     1.5638328114     0.1093604945
          10
Energy: -37.38828944971155 Kcal/mole
 H      2.0990319524     1.1864277867     0.9629436993
 F      1.7817155757     1.4086763065     0.1317969539
 H      1.6753984761     1.0093062904     3.2314158726
 F      2.3425947424     0.9193490492     2.6088037647
 H     -1.4136511327     2.0693847649     1.8697332048
 F     -1.5926241472     2.0650815378     2.7690880526
 H     -0.4086859428     1.4352696771     3.6658688992
 F      0.3225257834     1.1367138217     4.1317903653
 H      0.1761012195     1.8815421826     0.1797312191
 F     -0.6739123496     2.1459282526     0.3998810281
          10
Energy: -37.52219351457384 Kcal/mole
 H      1.7301200402    -0.0453794430     1.3324132892
 F      1.5767372717     0.2949375477     0.4948292205
 H      1.3925409451     0.0760111667     3.5546694891
 F      1.9228116524    -0.3526245364     2.9415027818
 H     -0.5335841720     2.6207661925     1.8966086422
 F     -0.9171677840     2.5659481282     2.7277209045
 H     -0.2656291783     1.5994963888     3.8935034489
 F      0.2653308884     1.0598231141     4.4109231665
 H      0.6929885179     1.7111075841     0.3761659627
 F      0.1992105319     2.4770657609     0.4780500736
          10
Energy: -37.62397558524239 Kcal/mole
 H      1.3757170884    -0.1180562436     1.1882914676
 F      1.4889614682     0.3199304089     0.3906496917
 H      0.5643729856    -0.1043373412     3.2247404972
 F      1.0034556625    -0.6858357265     2.6680044460
 H     -0.7690075333     2.8695486118     1.6014319910
 F     -0.8781968239     3.0339747745     2.4969378457
 H     -0.5206729935     1.8167914406     3.5865492295
 F     -0.2486472480     1.0798605929     4.0596495567
 H      0.3173908029     1.5408254893     0.1383073283
 F     -0.3588529669     2.1600000682     0.1526671528
          10
Energy: -37.54465392869383 Kcal/mole
 H      1.4184905626     0.4531755719     1.3966478054
 F      1.6385016205     0.9744901058     0.6750417556
 H      0.1653767346     0.1744993910     3.1952261061
 F      0.9019104923    -0.2335297445     2.8320192113
 H     -0.0911284629     3.6403385625     1.8989901447
 F     -0.7694322429     3.5539261228     2.5099941318
 H     -1.0582649510     2.0743954719     3.2966477057
 F     -1.0338112965     1.2131573131     3.6105901409
 H      1.5073501287     2.6637709159     0.7440538565
 F      1.1985033884     3.5093936773     0.9184810225
          10
Energy: -37.54439280114218 Kcal/mole
 H      2.1856849866     0.7223161079     2.1129747203
 F      2.4656753342     1.2376914089     1.4080756465
 H      0.5991267272     0.4029937085     3.5975778597
 F      1.3950665614     0.0142952219     3.3603390202
 H      0.2850399468     3.9386578576     2.4083322682
 F     -0.4972605469     3.8555240533     2.8794837388
 H     -0.7657096786     2.2795416753     3.4814761369
 F     -0.7342669839     1.4316241560     3.8292350151
 H      2.0511916939     2.8358145799     1.4104566400
 F      1.6994717095     3.6776847374     1.5023080990
          10
Energy: -37.47165003164827 Kcal/mole
 H      2.6206087670     0.8429949637     2.2282766286
 F      3.0229421000     1.4849156717     1.7116000434
 H      0.7364279001     0.0621686698     3.1602622433
 F      1.6205046923    -0.1800890935     3.1355964474
 H      0.1652585778     3.0179013922     0.8053460272
 F     -0.6123626112     2.9000482284     1.2768382522
 H     -0.7943406817     1.6080317135     2.4324792714
 F     -0.7207152183     0.8552292584     2.9508968200
 H      2.2096782976     2.4706944175     0.6097630210
 F      1.6425402113     3.0240651963     0.1482176037
          10
Energy: -37.31152619487284 Kcal/mole
 H      2.3727904087     0.1195589540     2.3881627312
 F      2.7773344862     0.3328492275     1.5933417774
 H      0.5980560258     0.3930558849     3.7258784437
 F      1.3340850704    -0.1537733432     3.7371939541
 H      0.2137673057     2.2062840587     0.6321937406
 F     -0.5284467357     2.3161911143     1.1593822799
 H     -0.6766270948     1.8264151590     2.6998094287
 F     -0.6653853835     1.3799947758     3.5007285665
 H      2.1586165249     1.3933817840     0.4275135189
 F      1.6367420485     1.9237766229    -0.1084131046
          10
Energy: -37.54430352591652 Kcal/mole
 H      2.4746251175    -0.3152005935     2.6684904267
 F      2.5706193366    -0.4966678032     1.7747657701
 H      1.4156261923     0.8529389884     4.1498086012
 F      2.1812228163     0.3495085526     4.1136339480
 H      0.5640856109     2.3120547487     1.0969643993
 F      0.2219311797     2.9592039246     1.6492481029
 H      0.0397599336     2.3215109081     3.2047445155
 F      0.0702907754     1.7920712406     3.9528424410
 H      1.7267523198     0.4614588213     0.7235711201
 F      1.1888914335     1.0504738783     0.2711819849
          10
Energy: -37.508314195201905 Kcal/mole
 H      2.2546188992    -0.7861642213     2.8810171554
 F      1.9307084843    -1.2071510434     2.1335272634
 H      2.1029090784     0.9148081928     4.2002312941
 F      2.7347972712     0.2617573810     4.0772233713
 H      0.3006424305     1.5696407384     0.9627652399
 F     -0.0496330362     2.2143735152     1.5127795524
 H      0.4177767532     2.1346960629     3.0739778874
 F      0.7528174894     2.0065859583     3.9179118340
 H      1.4432234885    -0.3330815842     0.8135715710
 F      1.0849789249     0.2878649374     0.2417540739
          10
Energy: -37.70124664866535 Kcal/mole
 H      2.2927435585    -0.8248611613     2.9566578672
 F      2.0425748089    -1.4006339247     2.2882341082
 H      1.8058106080     1.1246414158     3.9589896535
 F      2.4635999662     0.4877027311     4.0091022490
 H      0.5132894763     1.3499709459     0.5611832342
 F      0.3030347700     2.1576341844     0.9411332988
 H      0.4875445008     2.2970712220     2.6082830488
 F      0.6274427947     2.2108378337     3.5104367331
 H      1.3718770728    -0.7018407828     0.9270409899
 F      1.0353638742    -0.2056638666     0.2331704436
          10
Energy: -37.65448121988308 Kcal/mole
 H      2.1718224368    -0.3873606205     2.8726056126
 F      1.9420589809    -1.0487717163     2.2804627948
 H      1.6961108128     1.6801689839     3.8858291089
 F      2.2899143517     0.9821747268     3.8528082939
 H     -0.8560267067     1.0153439754     1.4110363598
 F     -0.9604731031     1.8852834446     1.6815641221
 H     -0.0828426566     2.5294329355     2.9357703216
 F      0.4346523922     2.7615931527     3.6563183826
 H      0.4832100394    -0.8711266359     1.4743421399
 F     -0.3059497397    -0.5535511087     1.1319072884
          10
Energy: -37.49544586125117 Kcal/mole
 H      1.6441637365    -0.6977424485     3.3233114507
 F      1.2524252595    -1.3465055551     2.8070398195
 H      1.4949632028     1.2110191017     4.3194146409
 F      2.1791020331     0.6216875012     4.1596293928
 H     -1.1538776115     0.9782609087     1.7415648543
 F     -1.3353599594     1.7374499005     2.2227978872
 H     -0.4072955518     2.0766274153     3.5093172985
 F      0.1537878971     2.1711561895     4.2284408444
 H      0.0426533099    -0.8713350832     1.6218430896
 F     -0.5866646530    -0.4412522525     1.1120620972
          10
Energy: -37.56911919522858 Kcal/mole
 H      0.9481696193    -0.9726603287     3.8143052256
 F      0.3674407508    -1.5533056812     3.4062685167
 H      1.5093319460     1.2386740595     4.1250451528
 F      1.8116452106     0.3952389489     4.3202704182
 H     -0.4205454999     1.1289262978     1.1849272513
 F     -0.0225085655     1.9546352538     1.1592305830
 H      0.5400885668     2.5283633673     2.5909648015
 F      0.8360099877     2.6545035638     3.4496895324
 H     -0.4941372002    -0.8440824112     2.1640777125
 F     -0.9384639248    -0.3792958333     1.5102916627
          10
Energy: -37.51397024727518 Kcal/mole
 H      1.3221569020    -1.1286741424     3.4510168407
 F      0.9480048333    -1.6895359381     2.8294597029
 H      1.5432088265     1.0131792166     4.1682108271
 F      1.7332904132     0.1658582092     4.4628378808
 H     -0.9430052051     1.0553180926     1.5384006306
 F     -0.8213638660     1.9387469569     1.7520494697
 H      0.4241306567     2.4481426268     2.7945603095
 F      1.1022947640     2.5038009626     3.4092834937
 H     -0.2598221635    -1.0741320325     1.8670287474
 F     -0.9431510733    -0.6350707078     1.4413812944
          10
Energy: -37.64153641193633 Kcal/mole
 H      1.5568745538    -1.1835738478     3.2178171341
 F      1.0841596210    -1.7966259429     2.7262922406
 H      2.1047994698     1.0871691072     3.4861780195
 F      2.2821939417     0.2434528352     3.7985288699
 H     -0.6683695980     0.9275246661     1.3107898072
 F     -0.5775320749     1.8185254270     1.5076531822
 H      0.8078672830     2.3089479763     2.2472814922
 F      1.5930878892     2.4340959113     2.7040698391
 H      0.0093944844    -1.1959464201     1.6584035877
 F     -0.5373625694    -0.6877907197     1.1257465608
          10
Energy: -37.614563139637056 Kcal/mole
 H      0.3321181324    -1.0494768043     3.7334879143
 F     -0.2270637801    -1.6131303629     3.2746859369
 H      1.6890100694     0.7783192013     3.7186974628
 F      1.3929235243     0.1177066210     4.2815587037
 H     -0.5316256869     0.8615016120     0.8999270244
 F      0.0866312949     1.5259007206     0.7686977250
 H      1.3802093125     1.8274650984     1.7871984850
 F      2.0337257770     1.7938823678     2.4295982289
 H     -1.1315698724    -0.9517840369     2.0227241457
 F     -1.4824987261    -0.3702482501     1.4066445500
          10
Energy: -37.48003553706735 Kcal/mole
 H      0.4043789352    -1.1540072599     3.6415484477
 F     -0.3874549080    -1.5709061069     3.4413397662
 H      1.9879909052     0.5631690425     3.3221252789
 F      1.8523829075    -0.2027916492     3.8077214997
 H     -0.7034403854     1.0399216579     1.1554113259
 F     -0.2654627581     1.8448526818     1.1893324798
 H      1.2011993400     2.0334621786     1.9201190655
 F      1.9968366873     1.8875271497     2.3520370889
 H     -1.1078188955    -0.9662251208     2.0771241607
 F     -1.3243864102    -0.5264019623     1.3021770007
          10
Energy: -37.643519630219345 Kcal/mole
 H      0.2438495651    -1.2954073549     3.5521866129
 F     -0.6384036770    -1.5191809094     3.4406356690
 H      1.7502188225     0.2532156066     3.3915676413
 F      1.7452972802    -0.6364675742     3.6136681055
 H     -1.0907099724     1.2893858271     1.2592290904
 F     -0.5343230172     2.0171947224     1.2190200379
 H      0.8499615129     2.0531917403     2.2481643199
 F      1.5231615594     1.8169873698     2.8242703802
 H     -1.5061505243    -0.7084161706     2.2480806108
 F     -1.8465192105    -0.1897676909     1.5727718577
          10
Energy: -37.628828005316905 Kcal/mole
 H      0.3938085438    -1.6023693971     3.4508721193
 F     -0.3694425242    -2.0319819694     3.1792660720
 H      1.6999183672     0.3342586989     3.4909675290
 F      1.6151475209    -0.5164175996     3.8227095053
 H     -1.1129845931     1.1333242389     1.5442739047
 F     -0.6230346874     1.9078050337     1.5123742426
 H      0.8569643437     1.9818354999     2.3362725003
 F      1.6014723777     1.8494688895     2.8549977337
 H     -1.2612395818    -1.0451798069     2.1806050718
 F     -1.7056920723    -0.3990296361     1.7053778204
          10
Energy: -37.72057830423762 Kcal/mole
 H      0.5753219634    -1.4026807219     3.3157525566
 F     -0.2299001042    -1.8168143744     3.1708396877
 H      1.8829605020     0.4577220921     3.3679898513
 F      1.9364348136    -0.4509358471     3.4792114665
 H     -1.4134130744     1.2410743993     1.8690563559
 F     -1.0455424519     2.0477287983     2.1032974405
 H      0.5201801785     2.1482674496     2.7283915426
 F      1.3693080523     2.0226726637     3.0510319055
 H     -1.3069660748    -0.9574580399     2.2442752559
 F     -1.7910379681    -0.3874643870     1.7135487371
          10
Energy: -37.75114358265614 Kcal/mole
 H      0.8668354398    -1.3636034570     3.6487154538
 F      0.0442151436    -1.7687934618     3.6511461554
 H      2.0096922171     0.5580293781     3.3418979487
 F      2.1519979724    -0.3384819763     3.4719189600
 H     -1.1193405151     1.0736987867     1.7413430596
 F     -0.7006767277     1.8703628652     1.5654567921
 H      0.7369121529     2.1180088798     2.4150507722
 F      1.4953456331     2.0829083184     2.9292837998
 H     -1.0679350976    -0.9951647438     2.7284072551
 F     -1.6122159721    -0.4424670710     2.2393544848
          10
Energy: -37.596724318332576 Kcal/mole
 H      0.7343924389    -1.3156711698     4.0047623807
 F      0.0258870383    -1.7948991849     3.6742330979
 H      1.9825141867     0.4857715271     3.6315786504
 F      1.8850692997    -0.1119384383     4.3201542028
 H     -1.0814885932     0.7810413862     1.6570964089
 F     -0.5144393612     1.3996482125     1.2874076709
 H      1.0351727362     1.4833698868     1.8448125445
 F      1.8403104744     1.4940244712     2.2835934721
 H     -1.2945083228    -0.9706153828     3.0302812649
 F     -1.8625217927    -0.4149648850     2.5725671376
          10
Energy: -37.69961556558937 Kcal/mole
 H      0.5504261242    -0.8570279284     4.4244256745
 F     -0.1396180170    -1.4467039629     4.2940022963
 H      1.8175381550     0.7804531697     3.6168048561
 F      1.7236604542     0.3010279919     4.3928380230
 H     -0.8456801825     0.3338098422     1.3958936782
 F     -0.2604953018     0.7665112924     0.8380253153
 H      1.0824607371     1.3460242809     1.6077387169
 F      1.7597191817     1.5767723732     2.1812936986
 H     -1.2829274110    -0.8867757427     3.1687729542
 F     -1.7567546104    -0.4524531724     2.5147540782
          10
Energy: -37.70800556788481 Kcal/mole
 H      0.4123557535    -0.8040598158     4.6487812219
 F     -0.3399059807    -1.3236261515     4.5777734334
 H      1.7820566056     0.7939212351     3.7600371466
 F      1.6498278391     0.2971442979     4.5193903108
 H     -0.7079350398    -0.0345795007     1.2342128483
 F     -0.2270520101     0.6450635463     0.8498616543
 H      1.0798485572     1.3331975106     1.7287992870
 F      1.7566341009     1.5628712911     2.3033428296
 H     -1.0759048746    -1.3467943476     3.0629651450
 F     -1.3280403646    -1.2552403114     2.1860760111
          10
Energy: -37.71817769539072 Kcal/mole
 H      0.6593756525    -0.6619771233     4.5514727857
 F     -0.0308485729    -1.2480475659     4.4065557233
 H      1.8838586209     0.9105148156     3.6347430817
 F      1.8128596338     0.5053705445     4.4543199624
 H     -0.6752085296    -0.0584461754     1.1920198088
 F     -0.0694471678     0.4039719341     0.6820083732
 H      1.2247432270     1.0682392251     1.5081738328
 F      1.8437887408     1.4264609413     2.0820630677
 H     -1.0843730846    -1.0453701135     3.1155750303
 F     -1.5402311873    -0.8588292073     2.3420862583
          10
Energy: -37.72637788772698 Kcal/mole
 H      0.6571768714    -0.5380002606     4.8033695186
 F     -0.2095269055    -0.8087033063     4.9315624364
 H      2.2666153394     0.1905916693     3.4196010250
 F      2.1233453977     0.0119101934     4.3075400172
 H     -0.8867444593     1.0848893831     2.0337259833
 F     -0.3008741882     1.5313171586     1.4875142417
 H      1.2884180850     1.0049109290     1.5819881464
 F      2.1048179403     0.6490004471     1.8004097687
 H     -1.2814465720    -0.2613461487     3.8011836149
 F     -1.7193061395     0.1267025385     3.0950772380
          10
Energy: -37.747060892944575 Kcal/mole
 H      0.7491967673    -0.8625794480     4.7201492795
 F     -0.0740294004    -1.2665381170     4.7178974637
 H      2.2173951679     0.3198364181     3.6669788533
 F      2.0870376170     0.0160598637     4.5223242303
 H     -0.7951986455     0.3362309784     1.6983692176
 F     -0.2161388333     0.7650844087     1.1312153855
 H      1.3605063821     0.8577220952     1.6418458024
 F      2.1668365628     0.7973173171     2.0743638973
 H     -1.1851554371    -0.7653329789     3.6141507295
 F     -1.6565468530    -0.4315915000     2.9019037511
          10
Energy: -37.68845578728639 Kcal/mole
 H      0.6111133595    -0.4384806171     5.0639793951
 F     -0.1644584119    -0.9275463611     5.0778403291
 H      1.8513678981     1.0303003893     3.9033917153
 F      1.9055827906     0.5710011266     4.6952211999
 H     -0.9187099970     0.2625649558     1.8059352882
 F     -0.2817232398     0.5015280402     1.1910909864
 H      0.9366964976     1.3839463290     1.9061169765
 F      1.5436831551     1.7839704770     2.4650775105
 H     -1.3192823049    -0.5042774764     3.8878528753
 F     -1.7762654771    -0.1800365215     3.1619581284
          10
Energy: -37.64366164741551 Kcal/mole
 H      0.6624195565    -0.2072273960     5.0359583117
 F     -0.0962919504    -0.7222118785     5.0420272597
 H      2.0855903208     1.0870413236     3.9092151066
 F      1.9271011556     0.8691077546     4.7857281664
 H     -0.8819426015     0.4576329348     1.8000493517
 F     -0.3057589466     0.7780132965     1.1626657783
 H      1.1890068880     1.1408778513     1.7703183057
 F      1.9470790419     1.2697713110     2.2699202327
 H     -1.2116896011    -0.4256764764     3.8493792071
 F     -1.7162049299    -0.1856633331     3.1222293092
          10
Energy: -37.669954325149064 Kcal/mole
 H      0.9317227262    -0.0704424028     5.1149547331
 F      0.2400186840    -0.6722815288     5.1299275190
 H      2.1773845798     1.3319481926     3.9664770108
 F      2.1245104050     1.0227986859     4.8281729573
 H     -0.5281195951    -0.0431945607     1.8811136352
 F      0.0818291687     0.3108556871     1.2950249665
 H      1.2983811867     1.2441805167     1.8633883353
 F      1.9188742642     1.7419503325     2.3195709207
 H     -0.9329769473    -0.6388631015     3.9234310721
 F     -1.4223236031    -0.5888347820     3.1495279660
          10
Energy: -37.79129390852452 Kcal/mole
 H      0.8603831875    -0.1386654307     5.1507740952
 F      0.2088291178    -0.7837821571     5.1645836406
 H      1.9213287387     1.5198455544     4.0807725577
 F      1.9018696286     1.1139829718     4.9028345426
 H     -0.6448741464     0.2206353480     1.9197389415
 F     -0.2172938393     0.8574504199     1.4172146683
 H      1.0766072414     1.7033492531     2.0263694255
 F      1.7743081919     2.0326475806     2.5220154636
 H     -0.7421336829    -0.9179833416     3.8419634128
 F     -1.1680443031    -0.9037512150     3.0299987644
          10
Energy: -37.78340396228529 Kcal/mole
 H      0.5587604879     0.2192199448     5.2690630288
 F     -0.2440674014    -0.2216428710     5.2243824088
 H      2.1532706576     1.2920624788     4.2050635493
 F      2.0029935723     1.0227641529     5.0686515352
 H      0.0361343268    -0.4779752047     1.7606795080
 F      0.6686730932    -0.0484320373     1.2544420378
 H      1.6896004518     1.0637922037     2.0128674544
 F      2.1568447493     1.6057011661     2.5863711098
 H     -0.8152570044    -0.8397478062     3.7536534275
 F     -1.0039865590    -1.0993176096     2.8946460513
          10
Energy: -37.78901201152277 Kcal/mole
 H      0.3498986944     0.4524771967     5.3814556480
 F     -0.3752018431    -0.1061818468     5.3265167403
 H      1.9203658480     1.5664955969     4.2118366864
 F      1.6599481805     1.4483624856     5.0831094373
 H      0.0565650955    -0.3334011548     1.7577593216
 F      0.7058653210     0.0307651376     1.2223332028
 H      1.7382031469     1.1003158112     2.0068518665
 F      2.2464434820     1.6044303825     2.5799567964
 H     -0.8403808325    -0.6044745010     3.8316526419
 F     -0.9944419600    -0.8278943090     2.9557315505
          10
Energy: -37.73854773074979 Kcal/mole
 H      0.2783704853     0.5177197091     5.2046209204
 F     -0.4689727435    -0.0131596888     5.1815089496
 H      2.1639819397     1.2952838621     4.2696215379
 F      1.6732381625     1.4170945439     5.0346193829
 H      0.1700189032    -0.4651529027     1.7023161477
 F      0.8767577329    -0.0968839978     1.2486783623
 H      2.1793702435     0.5111744797     2.1425149980
 F      2.7822051923     0.8259263267     2.7576656294
 H     -0.8463067104    -0.6966427962     3.7379066958
 F     -0.9310586201    -0.9777271641     2.8691733121
          10
Energy: -37.67346011130542 Kcal/mole
 H      0.6051138197     0.4151140757     5.2587261489
 F     -0.2242417393     0.0251005096     5.2279401935
 H      2.4348913337     0.9350348256     4.2460141385
 F      2.0846930955     1.0508145870     5.0855647568
 H      0.1118375823    -0.5589898409     1.7737237724
 F      0.8608462098    -0.4239773904     1.2622096337
 H      2.1677483982     0.2563139680     2.0700998513
 F      2.7926709668     0.5750800892     2.6606495471
 H     -0.8152409307    -0.4947336105     3.7645674662
 F     -1.0681222249    -0.6641230135     2.8995545870
          10
Energy: -37.64643524980244 Kcal/mole
 H      0.6974891556     0.5326448466     5.3885318879
 F     -0.1597410331     0.2093547042     5.3494308984
 H      2.5585553002     0.9802584741     4.1982572904
 F      2.3214694740     0.9076809303     5.0811003179
 H      0.2244420862    -0.6898873918     1.8872479182
 F      0.9876871337    -0.6143086284     1.3846209711
 H      2.1266480572     0.3775645807     2.0534561830
 F      2.6452073888     0.9309381320     2.5689781828
 H     -0.7392244590    -0.4279081509     3.9191122237
 F     -0.9644787115    -0.7154737922     3.0780084705
          10
Energy: -37.80165120150576 Kcal/mole
 H      0.4873362678     0.3521839226     5.4173447336
 F     -0.3271598138    -0.0689921054     5.4075525754
 H      2.3645794083     0.9869621676     4.2387185873
 F      2.0078663649     1.0201788774     5.0828402935
 H      0.2880259582    -0.8486153000     1.9336457149
 F      1.0522282206    -0.7349833954     1.4397108079
 H      2.2230168083     0.2753555555     2.1006733444
 F      2.7595647575     0.7845567198     2.6426322658
 H     -0.7903486068    -0.6387324001     3.9251880021
 F     -0.9349514788    -0.8969448620     3.0572563608
          10
Energy: -37.80744242594241 Kcal/mole
 H      0.6875775705     0.3003309110     5.2847571864
 F     -0.1639836808    -0.0375367389     5.3244798042
 H      2.4847443849     0.8715109630     4.0439276093
 F      2.2005163011     0.8489145605     4.9154738209
 H      0.2474053742    -0.7879492471     1.8855556977
 F      0.9926876101    -0.7278960357     1.3546724707
 H      2.2137245068     0.1911074698     1.9567665817
 F      2.7965063570     0.7087268846     2.4398032848
 H     -0.7575135612    -0.5735724195     3.8915975310
 F     -0.9456042749    -0.8096291465     3.0256944735
          10
Energy: -37.80527511238046 Kcal/mole
 H      0.5508846336     0.5222934168     5.1756995615
 F     -0.2544819858     0.0874554745     5.2321758590
 H      2.4184664414     0.9917702887     3.9870689642
 F      2.0723133919     1.1335880215     4.8242993966
 H      0.1541248958    -0.8199492879     1.8803283343
 F      0.8996834010    -0.7461818699     1.3515657377
 H      2.1809187790     0.1353543835     1.9224990899
 F      2.7816844413     0.6359836388     2.4013936167
 H     -0.8756827002    -0.5045770825     3.8393889659
 F     -1.0606883243    -0.8119652460     2.9954846846
          10
Energy: -37.82135233893868 Kcal/mole
 H      0.6464957003     0.4696963951     5.1804042189
 F     -0.2018725712     0.1248201107     5.2275277206
 H      2.4774091320     0.9228524694     3.9335500740
 F      2.1894803193     1.0089100459     4.7999103295
 H      0.1770220528    -1.0100858804     1.8791855468
 F      0.9135239909    -0.9241428659     1.3396786483
 H      2.1404847481     0.0656398976     1.8731239432
 F      2.7177790796     0.6210329424     2.3193960806
 H     -0.7765430021    -0.6326436860     3.8660853287
 F     -0.9621504218    -0.9896369567     3.0420739875
          10
Energy: -37.82297133183744 Kcal/mole
 H      0.8712062363     0.1177260457     5.1574174557
 F     -0.0017592959    -0.1520242573     5.2352310383
 H      2.6261856273     0.6802699307     3.8851748024
 F      2.4214439127     0.5289640702     4.7661267687
 H      0.0746011574    -0.5631485044     1.6748384524
 F      0.7337575061    -0.3274569132     1.0825113622
 H      2.0603544530     0.4285911934     1.7165638296
 F      2.7065904874     0.8340623869     2.2253477711
 H     -0.7447933345    -0.6166358962     3.8198002976
 F     -0.9877528586    -0.8168882830     2.9585461823
          10
Energy: -37.74343328406724 Kcal/mole
 H      0.7222729233     0.1504912841     5.2263490816
 F     -0.1872342698     0.0410653169     5.2677208515
 H      2.5490371820     0.6851568408     3.9202018061
 F      2.3341893197     0.4101637315     4.7682042742
 H     -0.0856362189    -0.2755296342     1.7074167991
 F      0.6047588975    -0.1154363222     1.1255115537
 H      1.9528977298     0.6466162313     1.7339815993
 F      2.5919233831     1.0166211630     2.2777017157
 H     -0.8870490669    -0.3458800477     3.8122163800
 F     -1.1499013802    -0.5083656702     2.9488531402
          10
Energy: -37.82723605539755 Kcal/mole
 H      0.7553411122    -0.0345574050     5.1339699356
 F     -0.1505959394    -0.1643276179     5.1916479254
 H      2.5509944951     0.5054617939     3.8823268112
 F      2.3398727370     0.2192601385     4.7275517609
 H     -0.2299836317     0.1397996451     1.6572021199
 F      0.4707646788     0.2239003684     1.0717383092
 H      1.9241644086     0.7238604340     1.7438101720
 F      2.6205163279     0.9815576224     2.2819320575
 H     -0.9910358368    -0.1084741112     3.7675173175
 F     -1.3170686200    -0.0550910396     2.9120981969
          10
Energy: -37.76342187280528 Kcal/mole
 H      0.7541657081     0.1306646378     5.1908190653
 F     -0.1600645156     0.0692737303     5.2269196809
 H      2.5246005572     0.5911352856     3.8776297526
 F      2.3631867836     0.1937008583     4.6881113808
 H     -0.2098183118     0.0668908156     1.6880695224
 F      0.4325950910     0.3808618845     1.1139474206
 H      1.8302878228     0.9839040418     1.7747937924
 F      2.5168671251     1.2373963782     2.3272786312
 H     -0.9128877455    -0.3191579850     3.8051390077
 F     -1.1861368272    -0.4737811636     2.9435616101
          10
Energy: -37.808888868936265 Kcal/mole
 H      0.6794294890     0.2003169102     5.1924891939
 F     -0.2292246968     0.0986106838     5.2624349875
 H      2.5004347515     0.5386543546     3.9011162393
 F      2.2669261511     0.3750818594     4.7726704673
 H     -0.3009266528     0.1579793680     1.6698128812
 F      0.3691372284     0.4144303182     1.0987294327
 H      1.8978650162     0.6144681302     1.7219461863
 F      2.6465831453     0.7164606554     2.2414725937
 H     -1.0075098107    -0.1780003575     3.8032787122
 F     -1.2978319341    -0.3064417806     2.9429852358
          10
Energy: -37.794354559953405 Kcal/mole
 H      0.6682085248     0.1933236251     5.1084721476
 F     -0.2408331489     0.0729883646     5.1012846186
 H      2.4873272655     0.5761079184     3.9368828000
 F      2.2751459045     0.4271091104     4.8164664658
 H     -0.3006625589     0.0818004233     1.5410814423
 F      0.3588207710     0.4063156216     0.9927561522
 H      1.8296495227     0.6800921428     1.7477353096
 F      2.5707972747     0.8102863106     2.2717949325
 H     -0.9756973954    -0.2622675910     3.6749190890
 F     -1.2410672186    -0.4342582957     2.8141711269
          10
Energy: -37.79561858509663 Kcal/mole
 H      0.6343534484     0.4039758807     5.1169756119
 F     -0.2674040506     0.2378878105     5.1052638298
 H      2.4734728561     0.7699231625     3.9409147616
 F      2.2598562651     0.7031449456     4.8301827874
 H     -0.2416719258     0.0720961786     1.5706783823
 F      0.4029630885     0.4383308183     1.0310424985
 H      1.8630488699     0.6847700539     1.7432699265
 F      2.5890093768     0.8291664810     2.2845831578
 H     -0.9658079174    -0.2138909805     3.6641002586
 F     -1.2143410011    -0.4470011643     2.8127601688
          10
Energy: -37.81989491251994 Kcal/mole
 H      0.5293616059     0.6439106946     5.0134337611
 F     -0.3790963708     0.5191279465     5.0087040205
 H      2.4164889964     0.8744759516     3.8476776989
 F      2.1698138668     0.7858743492     4.7264211976
 H     -0.3150763152     0.3549256754     1.5497964213
 F      0.3584760913     0.6895250284     1.0251447001
 H      1.8736591343     0.8996348309     1.6954763706
 F      2.6261089236     0.9914639488     2.2114954861
 H     -1.1142042116     0.0810537168     3.5927830468
 F     -1.3571196969    -0.1202545811     2.7317627008
          10
Energy: -37.792213947611856 Kcal/mole
 H      0.5660597225     0.5781813572     4.9840777606
 F     -0.3269678815     0.3780180186     5.0417434896
 H      2.4311426387     0.8816436505     3.7990213892
 F      2.1344462065     0.8916250564     4.6666391614
 H     -0.2338731394     0.3275414882     1.5165186276
 F      0.4064800681     0.7176840339     0.9886686833
 H      1.9193687666     0.8165696015     1.6418393911
 F      2.6778726601     0.8559646324     2.1556573306
 H     -0.9839352645    -0.1336548733     3.5919629586
 F     -1.1783988336    -0.3297785069     2.7175440426
          10
Energy: -37.83570057065555 Kcal/mole
 H      0.6797145543     0.3438933621     5.0584716912
 F     -0.2086074156     0.1167269699     5.0714527522
 H      2.5001687479     0.7428197275     3.8535625405
 F      2.2541003596     0.7430237683     4.7369307008
 H     -0.2420132744     0.2239220644     1.4868215115
 F      0.4183353780     0.5785283250     0.9585383892
 H      1.9311863183     0.7028920530     1.6481764563
 F      2.6707847206     0.7243027750     2.1898634362
 H     -0.9212308188    -0.2308500066     3.6172239712
 F     -1.1844019987    -0.3662948701     2.7493042635
          10
Energy: -37.81819466942474 Kcal/mole
 H      0.7107835779     0.3869243933     5.0540724121
 F     -0.1956455986     0.2482533928     5.0608179094
 H      2.5483337847     0.7252032600     3.8306588250
 F      2.3292885061     0.5933066031     4.7112900974
 H     -0.1756055858     0.1456129452     1.4397246384
 F      0.4958368564     0.3598381941     0.8530717688
 H      1.9221795330     0.7413593307     1.6165180830
 F      2.6337243969     0.9206850131     2.1664591764
 H     -0.9190412153    -0.0821456193     3.6095515479
 F     -1.1506082320    -0.2257038682     2.7339621773
          10
Energy: -37.83973147435796 Kcal/mole
 H      0.7107618613     0.4289021933     5.0315805573
 F     -0.1559661373     0.1353762523     5.0908603894
 H      2.5223556329     0.9426649950     3.7902148074
 F      2.2427803888     0.9256019511     4.6633903542
 H     -0.0279804998    -0.1098552639     1.5175497550
 F      0.6859840957     0.0162914575     0.9560957845
 H      2.0749455552     0.6020363792     1.6304028476
 F      2.7748008039     0.9010485084     2.1419528231
 H     -0.8918885415    -0.1198166053     3.6266576796
 F     -1.1500423645    -0.2058695709     2.7509633889
          10
Energy: -37.83406360011202 Kcal/mole
 H      0.6831560831     0.4360562989     5.0234708512
 F     -0.2044388192     0.2098368072     5.0669338351
 H      2.5195853725     0.8997854628     3.7902449263
 F      2.2650628884     0.8064731337     4.6662586901
 H     -0.0480098054    -0.1319411278     1.5377508942
 F      0.6672311645     0.0272509666     0.9864095915
 H      2.0392660798     0.6563912988     1.6588227718
 F      2.7199457769     1.0121758814     2.1598032912
 H     -0.8954382867    -0.2019016373     3.6275040300
 F     -1.1350746123    -0.3619577372     2.7569608224
          10
Energy: -37.855847719668134 Kcal/mole
 H      0.7024309309     0.4007956195     5.0335608401
 F     -0.1798664284     0.1525712093     5.0622838632
 H      2.4947489640     0.9634124366     3.8135361747
 F      2.2657398987     0.8561848621     4.6949816326
 H     -4.083966E-40    -0.2892901109     1.5438929256
 F      0.7250664224    -0.1655077398     0.9968525142
 H      2.0274431936     0.6261770729     1.6451207382
 F      2.6601383106     1.0360639444     2.1672113831
 H     -0.9022947727    -0.2352245495     3.6177871905
 F     -1.1291454114    -0.4375847345     2.7526408773
          10
Energy: -37.85216848238744 Kcal/mole
 H      0.7185697806     0.4049604720     5.0389478703
 F     -0.1537594213     0.1222722648     5.0432070969
 H      2.5294073412     0.9761773256     3.8195660770
 F      2.2931677433     0.8692270386     4.6991349990
 H      0.0374452648    -0.3863756502     1.5626808781
 F      0.7634406249    -0.2567598243     1.0176859472
 H      2.0556798482     0.5727642080     1.6642096805
 F      2.6818685321     1.0083262940     2.1731914104
 H     -0.8794851467    -0.3422702062     3.6204563313
 F     -1.1189863368    -0.5254701070     2.7544505713
          10
Energy: -37.86427898561388 Kcal/mole
 H      0.7489390051     0.3759239094     5.0359747936
 F     -0.1210282188     0.0866577881     5.0552397971
 H      2.5189914938     0.9515076149     3.8318964446
 F      2.2934239279     0.8619500711     4.7161971398
 H      0.0314747396    -0.3680028762     1.5261873901
 F      0.7650904919    -0.2303596148     0.9935043130
 H      2.0402634518     0.5757283337     1.6695684983
 F      2.6589669605     1.0082189072     2.1901901193
 H     -0.8521702035    -0.3319002832     3.6124549121
 F     -1.0982469684    -0.5033490904     2.7458866619
          10
Energy: -37.86487055179265 Kcal/mole
 H      0.7361876386     0.3846171066     5.0436469245
 F     -0.1150374884     0.0447963277     5.0723979484
 H      2.5101106489     0.9952873130     3.8340190331
 F      2.2661249516     0.9268240495     4.7153094285
 H      0.0181940852    -0.3688947590     1.5389439392
 F      0.7396503768    -0.2094895428     0.9958235139
 H      2.0246354547     0.5900046341     1.6767869341
 F      2.6597959896     1.0074615824     2.1898071980
 H     -0.8380515856    -0.3707660410     3.6300735621
 F     -1.0982500595    -0.5315313015     2.7655851092
          10
Energy: -37.873448024346544 Kcal/mole
 H      0.7417842707     0.3708888505     5.0525671797
 F     -0.1153343768     0.0455245800     5.0719247494
 H      2.5120504770     0.9986496714     3.8391015077
 F      2.2574839715     0.9346779903     4.7177325556
 H      0.0229921711    -0.3883284911     1.5509760479
 F      0.7481320543    -0.2403763622     1.0095230792
 H      2.0403592694     0.5553858205     1.6817696553
 F      2.6777779699     0.9822212056     2.1841618869
 H     -0.8411500788    -0.3458154496     3.6266996732
 F     -1.0988166973    -0.5261536923     2.7653199474
          10
Energy: -37.876155714798045 Kcal/mole
 H      0.7417452463     0.3710885416     5.0542762566
 F     -0.1153323067     0.0455139868     5.0718340869
 H      2.5146645320     1.0020510108     3.8408702226
 F      2.2697591012     0.9401724319     4.7223924126
 H      0.0272611199    -0.3772349529     1.5595162228
 F      0.7479055965    -0.2409648488     1.0090700427
 H      2.0471476328     0.5552520893     1.6733922879
 F      2.6774178629     0.9822282997     2.1846062869
 H     -0.8457552321    -0.3608262207     3.6310575732
 F     -1.0985724045    -0.5253574056     2.7650887709
          10
Energy: -37.88020722572239 Kcal/mole
 H      0.7397250795     0.3764859139     5.0569577107
 F     -0.1152251415     0.0452276687     5.0716918419
 H      2.5140910860     1.0000502264     3.8405731020
 F      2.2697895212     0.9402785689     4.7224081741
 H      0.0252234086    -0.3827304458     1.5554392098
 F      0.7480136924    -0.2406733256     1.0092863188
 H      2.0455680801     0.5579268226     1.6731157273
 F      2.6775016545     0.9820864113     2.1846209578
 H     -0.8427324515    -0.3520082244     3.6284427004
 F     -1.0987327560    -0.5258251799     2.7652274838
