          10
Energy: -37.857398598994905 Kcal/mole
 H     -0.1650430821    -0.2758142353     0.5333836052
 F     -0.7083868031     0.4426150034     0.3615522056
 H      0.0741808946    -2.5041416751     0.6345401589
 F      0.5443433029    -1.7424627788     0.8337424904
 H     -3.3982442278    -1.7246676339     0.3636385437
 F     -3.3535399627    -2.6188109239     0.1651484796
 H     -1.8921748898    -3.4113518635     0.2007833610
 F     -1.0188356534    -3.6864355060     0.2507490270
 H     -2.3243220745     0.1920311646     0.5996695975
 F     -3.1762174451    -0.1248785870     0.7210429342
