          10
Energy: -37.87233822914655 Kcal/mole
 H     -3.6318067341     3.3549673813    -5.2864878071
 F     -4.1722315710     3.6993938551    -5.9423844452
 H     -2.7470579224     3.5419733652    -3.2129536906
 F     -2.7670701915     2.9656241296    -3.9259123624
 H     -5.2538765034     6.0893012700    -3.5736044485
 F     -4.9024424635     6.2525589368    -2.7425027400
 H     -3.6141509478     5.3333317673    -2.2097225171
 F     -2.9280778734     4.7407600285    -2.0716954507
 H     -5.1982378712     4.9120718997    -5.4864048038
 F     -5.6845021385     5.5797424824    -5.0880932983
