          10
Energy: -37.87711153965506 Kcal/mole
 H      0.7027448039     0.6173122661     5.1518880322
 F     -0.2088487812     0.5258513160     5.1128876452
 H      2.7009799445     0.5893010875     4.0813105919
 F      2.3515479833     0.6980695241     4.9221171878
 H      0.1387485739    -0.3303929292     1.7275527368
 F      0.8793788766    -0.1974212400     1.2034589621
 H      2.3356705057     0.1388730980     1.9283660945
 F      3.0453296658     0.3345477614     2.4751606653
 H     -0.8360812712    -0.1354013301     3.7314285485
 F     -1.0230225996    -0.4825577843     2.9035249695
