          4
Energy: -0.14471146672624982 Kcal/mole
 Kr     5.2240392725     7.0517600427     3.3711761156
 Kr    -5.3546311171    -3.8567425897     1.5662824300
 Kr    -3.8526861919    -4.6298219263     6.6790605570
 Kr    -4.6016218898    -5.9749940985    -4.5656439941
          4
Energy: -0.3119751361424228 Kcal/mole
 Kr     6.2917457095    -0.8241772274    -7.0473203093
 Kr     5.2906139428     1.3718573754    -3.5932306537
 Kr    -3.6485507723    -3.4019109519     4.2794084500
 Kr    -6.9694956998     4.4512277191     1.0654046710
          4
Energy: -0.4502896827862646 Kcal/mole
 Kr     0.0200945983     1.0217656112     5.8174022099
 Kr     4.1009707041    -2.7895393078     1.1077720570
 Kr     3.9384700851    -5.1806195372    -3.7813943788
 Kr    -2.6650429541     0.5369076964     2.8657606996
          4
Energy: -0.12417140254977393 Kcal/mole
 Kr    -7.2452173079    -2.9356217030    -5.3291124442
 Kr     0.4564077966    -3.1294183377    -2.7413036386
 Kr     5.6852635796    -1.8916501341    -2.8825528568
 Kr    -0.7081732654     3.2639956765     4.3457595653
          4
Energy: -0.3378707718528721 Kcal/mole
 Kr    -5.7925381685     2.3161227421    -5.7385402735
 Kr     5.8985149059    -2.6522162386     2.4897510824
 Kr    -1.5620879020    -4.8355337368    -0.1305171064
 Kr    -7.3406666195     0.0369178964    -2.6517092485
          4
Energy: -0.15829899045313967 Kcal/mole
 Kr    -6.6612318681     4.9895221856    -3.8099093492
 Kr    -1.3748277013     5.9623662344    -2.8468150952
 Kr    -3.2626481270    -0.4021892048    -0.6172260846
 Kr     4.1337529107    -0.1868613893    -5.4175794016
          4
Energy: -0.5561668992089132 Kcal/mole
 Kr     1.2004923491     4.4550122381    -1.4023050089
 Kr    -5.7789090241    -0.1850117822     7.2916483073
 Kr    -6.1852144529     3.4186935599    -0.1565941405
 Kr    -2.9150760168     2.5098600686    -2.4972141158
          4
Energy: -1.415734987582213 Kcal/mole
 Kr    -1.8802020292     1.6510116597     5.8915388627
 Kr    -7.0160123741     6.4663961148     5.2270857582
 Kr    -4.0052987479     5.0656487912     7.1034572263
 Kr    -5.9015703712     2.0326254030     4.7884048607
          4
Energy: -1.7992631000231818 Kcal/mole
 Kr    -4.8970431372     0.9888316116     3.7197030241
 Kr    -0.8757360876     0.4774484401     3.3698211193
 Kr    -1.7769536604     3.4300086917     5.7274195207
 Kr    -2.8425093997     3.8759091169     1.8923402738
          4
Energy: -1.9019490873454332 Kcal/mole
 Kr    -4.7863790317     1.1941933481     3.8465482009
 Kr    -0.8581861561     0.6510836286     2.9676926891
 Kr    -1.9555444141     3.4221795931     5.7295209715
 Kr    -2.7491931836     4.0519507503     1.7911536974
