          4
Energy: -0.7000627027038092 Kcal/mole
 Kr    -4.8555485344    -6.9039298032     2.5655904212
 Kr    -3.1697789974    -1.3617743362    -2.4642360191
 Kr    -5.6984523719    -2.9308630263     6.0968164007
 Kr    -2.2092252873    -3.5710816226     1.4215806579
          4
Energy: -0.1499109811386093 Kcal/mole
 Kr     6.5784470977     2.0107626401     2.0666336001
 Kr    -6.3050133948    -3.0495700247    -0.9589194899
 Kr    -7.4676542194    -7.4316418453    -5.0369457124
 Kr     2.8930254940     0.3637991740    -1.7140672443
          4
Energy: -0.24496073174608615 Kcal/mole
 Kr    -2.1733826216    -2.0933461219     6.2231546897
 Kr    -5.8786700482    -5.5492241515    -0.8232623095
 Kr     1.0825372198    -3.4720221327     7.4868311818
 Kr     1.4510054691    -0.7541123473     0.2160628920
          4
Energy: -0.1584655135594171 Kcal/mole
 Kr     0.0829043208    -3.7925393392     1.7947911203
 Kr    -4.7780898897    -0.2706835136     6.0876915883
 Kr     2.5640428140     0.0547069671    -1.1742951623
 Kr    -5.0941025903    -6.2782092871    -1.5336931241
          4
Energy: -1.410094914249857 Kcal/mole
 Kr     7.3832867474     3.7571154207     3.5886951147
 Kr     3.8095578893     1.6324246840     5.5839358332
 Kr     3.5624289444     4.4679628646     2.4443896437
 Kr     6.2980750505     7.2360746016     4.9839380064
          4
Energy: -1.489534111910927 Kcal/mole
 Kr     0.6271737277    -4.0176844669     3.9593164347
 Kr     0.1977021951    -1.7690623883     0.7331921139
 Kr     3.9901593250    -6.0913077676     3.1683910207
 Kr     0.6625007673    -6.5088110535     0.6541092086
          4
Energy: -1.7270715862064967 Kcal/mole
 Kr     1.8517488241    -2.1567631635    -1.2219904528
 Kr     4.0976272981    -5.3099127418     1.0223923907
 Kr     2.8020387494    -2.3484836307     3.1695899415
 Kr     5.7253612084    -1.7260649999     0.2210373675
          4
Energy: -1.360573302857068 Kcal/mole
 Kr    -0.3250066600     4.2604972804     2.6689192051
 Kr     0.7423487270     0.3348841473     2.5629634388
 Kr     3.5386383270    -1.8973522827     0.7739297610
 Kr     1.3132586254     1.2611103902    -1.1984702003
          4
Energy: -1.8503124920020082 Kcal/mole
 Kr     1.4389792694     4.0834392175     1.4720415241
 Kr     1.4541917469     1.1519577480    -1.4104543899
 Kr     4.9415796980     2.9030523496    -0.7595821446
 Kr     1.9782179812     5.0965897097    -2.3259239402
          4
Energy: -1.9019214325504792 Kcal/mole
 Kr     1.7656400408     3.9811782753     1.5456094488
 Kr     1.2951774344     1.2076880809    -1.3935723801
 Kr     4.9415796980     2.9030523496    -0.7595821446
 Kr     1.9110391925     5.1078844332    -2.3522858287
