          6
Energy: -1.1877032789242739 Kcal/mole
 Xe     4.6344943945    -0.5190691420     0.5187986015
 Xe    -4.3849574535     7.7246503281     5.3344119348
 Xe    -0.1959663897    -6.1832580175     8.0162648064
 Xe    -3.3340820737     0.6607673986    -4.5789077459
 Xe     1.1720554107     0.7703521927    -2.2516106205
 Xe    -3.5835813063     2.7452894583     0.3018407028
          6
Energy: -0.8454107832463172 Kcal/mole
 Xe     7.7788109456     7.8865820848    -7.4535055689
 Xe     4.8210016804     0.8912337826     2.5933919594
 Xe    -1.8036946615     0.3568479872     1.3858556850
 Xe     8.0128914858     3.1879670833     4.4559684777
 Xe    -5.6915001409    -2.5570029620     2.2001470193
 Xe    -4.9790718196     8.0099728911    -6.4811678635
          6
Energy: -1.532956576031841 Kcal/mole
 Xe    -2.2584318641     4.0868071197     1.1854958351
 Xe    -2.2707321936     7.5195982451    -9.2759690251
 Xe    -2.9848058481     9.0422412181    -4.3378399219
 Xe     9.2598339689     1.2621806282    -2.2574437535
 Xe     1.1896553460     6.9062339116    -3.7519382627
 Xe    -5.2767894602     7.6847009185    -0.0044747012
          6
Energy: -1.5519890728039476 Kcal/mole
 Xe     7.6292585202     2.5525638575    -0.3152242300
 Xe    -3.0464772781     9.6618961503    -8.3294737645
 Xe     5.6241568578    -0.3736665673    -3.9242881392
 Xe     3.3811387259     4.1788231801    -1.5419901856
 Xe     2.9928168295    -0.6186299358    -1.0167785346
 Xe     3.6502866713     3.7011794515    -8.6240329239
          6
Energy: -2.050261046305446 Kcal/mole
 Xe     5.4212410526    -4.3343899465    -4.7062646282
 Xe     2.5208251511    -0.6439156243    -0.6429668450
 Xe     3.2248237648    -0.7718692982    -4.9282502371
 Xe     5.4189704049    -4.3838805103    -0.4460635094
 Xe    -6.7478091256     2.8162265490    -6.1487157015
 Xe     7.9973420809     1.2342682954    -7.5875910440
          6
Energy: -3.722852586048949 Kcal/mole
 Xe     8.6754584096     1.3068598106     1.1859496015
 Xe     4.9674065021    -1.0399711740     2.0567866594
 Xe     5.6233399367    -4.6306936696     5.0445128640
 Xe     2.3583022710    -0.9615083106     5.9572342866
 Xe     9.2870565351    -3.1285941148     2.0646319477
 Xe     2.2392820938    -5.0347164805     2.0851044481
          6
Energy: -4.269580910005832 Kcal/mole
 Xe     4.8958044589     2.1201227924     2.1000375277
 Xe     0.8409342479     4.5755487482     2.7031067501
 Xe     0.7281751171     0.2286851955     3.1352286978
 Xe     6.0605695434     5.4067675083     4.7314207989
 Xe     3.1174760683     3.2350404435     6.8666728242
 Xe     4.3759991516    -1.4016054361     4.9908093754
          6
Energy: -4.667080909042273 Kcal/mole
 Xe     5.8993890425     1.5247982170     0.1309321246
 Xe     1.5898397347     0.5150367905     1.1928695859
 Xe     3.9682769013    -2.9791500428     0.1041114744
 Xe     3.5154754849     3.7442407855     3.2645474613
 Xe     5.1881150996    -0.2094851756     3.8030680849
 Xe     8.7018408292    -1.8652129180     2.1666397166
          6
Energy: -5.193143438171085 Kcal/mole
 Xe     2.3105730809     3.0977497565     3.1899004301
 Xe     0.9701560817    -0.8710986572     4.1389378555
 Xe     3.1038301824     0.1008299116     0.2708125654
 Xe     4.6682808854     0.8301241390     6.2552145475
 Xe     4.7329956406    -2.4625390688     3.4491076458
 Xe     6.4711738549     1.6088448985     2.1442762469
          6
Energy: -5.502830192431729 Kcal/mole
 Xe     2.2865253397     3.0231416251     3.1513031285
 Xe     1.1750466225    -1.1146989986     4.1169324791
 Xe     3.0694970563    -0.1579514813     0.2363828891
 Xe     4.5433250053     0.8273251552     6.2023733516
 Xe     5.2933140232    -2.3986973869     3.2869777754
 Xe     6.4312142707     1.7432997675     2.3357322932
