          6
Energy: -5.325988877098715 Kcal/mole
 Xe     5.6106803514     0.7934202707    -5.5970457538
 Xe     5.5997288147     5.2026179801    -5.6662130899
 Xe     5.9866400165    -0.8169279442    -1.5073459228
 Xe     1.8004120183     2.9804102095    -5.9564972713
 Xe     4.0281702063     3.0903760894    -2.1492322160
 Xe     2.0284031422    -0.6216805409    -3.4418624325
