          6
Energy: -5.502830192431729 Kcal/mole
 Xe     2.2865253397     3.0231416251     3.1513031285
 Xe     1.1750466225    -1.1146989986     4.1169324791
 Xe     3.0694970563    -0.1579514813     0.2363828891
 Xe     4.5433250053     0.8273251552     6.2023733516
 Xe     5.2933140232    -2.3986973869     3.2869777754
 Xe     6.4312142707     1.7432997675     2.3357322932
