          6
Energy: -2.542742485061988 Kcal/mole
 Xe    -4.9025096051     2.9092978649     2.6371466986
 Xe    -5.8896285263     8.5578565258     9.1567065448
 Xe    -6.1911553494     0.9753927329    -2.2077413252
 Xe    -5.2260632525     4.6186703055     6.8813381842
 Xe    -7.3949196457    -0.4620214676     4.7273792489
 Xe    -2.5628843407     1.3474327302     6.9093512142
          6
Energy: -3.6293717693435115 Kcal/mole
 Xe    -3.2179253584     8.9326518309     3.8810134186
 Xe    -3.6034156277    -0.1205387312     1.1163134770
 Xe    -5.3222966220     5.0752172170     7.0488967848
 Xe    -7.6975504123     7.6896565581     3.8276709424
 Xe    -5.6950354509     4.1039901941     2.7839745634
 Xe    -1.2978521725     4.5295957699     4.0343145200
          6
Energy: -4.709760412853327 Kcal/mole
 Xe    -5.3663991961     1.9263252481     4.1348196104
 Xe    -6.7344924407     6.1908520277     4.3856841409
 Xe    -4.4539903063     9.6144920652     2.6678591997
 Xe    -9.0094270757     3.9171029958     1.6605989776
 Xe    -4.9970378202     4.8105441156     0.2430655857
 Xe    -2.3672839721     5.4285178213     3.9866162694
          6
Energy: -4.617793201923643 Kcal/mole
 Xe    -6.5173733313     7.1121890361    -0.0918574029
 Xe    -4.3671635228     8.1874246726    -3.6514260313
 Xe    -6.4702072946     3.9519826538    -4.2536640551
 Xe    -7.2632387426     3.1044632577    -0.1917309144
 Xe    -2.8458151652     4.5206648466    -1.3790813314
 Xe    -2.4534121248     9.0476963830     0.3461189958
          6
Energy: -4.916282113374925 Kcal/mole
 Xe    -2.2811020886     1.7620584818    -1.6472464699
 Xe    -5.2158523816     2.3344139569     1.6349330124
 Xe    -6.7443626878     0.1890843767    -2.1662585170
 Xe    -1.3941794157     5.7454010845    -3.8736099359
 Xe    -5.4577033477     4.5215774328    -2.6563739143
 Xe    -2.3751836571     5.9948801718     0.5557141539
          6
Energy: -4.550097232773111 Kcal/mole
 Xe    -6.1048633268     4.8984024633     1.2584432031
 Xe    -5.9736607601     1.0190706869     3.7053471163
 Xe    -2.7087348493     2.3830487639    -0.0184753457
 Xe    -7.6248921785     5.7875222856     5.5975094943
 Xe    -6.7307808571     1.4212574266    -0.9669945834
 Xe    -3.1515108467     4.2576111905     4.2391781516
          6
Energy: -4.636660317195504 Kcal/mole
 Xe     1.2380646831     5.6334272871     3.2618283813
 Xe    -3.3959210010     1.1723480010    -0.9220767515
 Xe    -1.9078791293     0.7227414857     3.5679393437
 Xe    -2.7276963736     4.7785649369     1.5753845075
 Xe     0.4876410212     2.5878587065     0.1267006589
 Xe    -6.4098062068     2.4388025758     2.5494016133
          6
Energy: -5.08981188792882 Kcal/mole
 Xe    -5.2436736865     1.7631028446     2.7801687210
 Xe    -3.2378733791     4.7222093903    -3.1975815127
 Xe    -5.6352342266     0.8894431912    -1.6171087414
 Xe    -3.5650050621     5.3065371584     1.1575790980
 Xe    -1.6640568419     1.4962937069    -0.1104260049
 Xe    -7.2922535179     4.8487047653    -0.9350202996
          6
Energy: -5.3735792981147945 Kcal/mole
 Xe    -8.8805623879     4.5281138863    -2.2911877293
 Xe    -2.7029180687     5.7676968674    -1.5876002905
 Xe    -5.3675169761     4.8285291311    -4.8334675803
 Xe    -6.2348349886     5.3225572634     1.1663497934
 Xe    -5.1354466219     2.1994786723    -1.6303041512
 Xe    -6.2763213925     8.1018929973    -2.1182484549
          6
Energy: -5.502845208808574 Kcal/mole
 Xe    -8.7966554888     4.6081276519    -2.3429987816
 Xe    -2.7179273945     5.7607353283    -1.5221591515
 Xe    -5.3050110608     4.9899715748    -5.0053605873
 Xe    -6.1977165831     5.3791603577     1.1296538863
 Xe    -5.2107578086     2.1294654626    -1.6891094036
 Xe    -6.2919479632     8.2146599724    -2.2202002435
