          6
Energy: -0.12915515495412344 Kcal/mole
 Xe    -3.8680976064     6.3735330252    -2.3140211486
 Xe    -0.3753602224    -1.9703824126     4.1628468679
 Xe     3.7304767743     2.3183284572    -2.9477996485
 Xe    -6.1791140084    -5.2548769277    -4.7054701592
 Xe     5.9814357314     5.8118661707     3.7744491869
 Xe    -2.0386027053     6.0016630629     5.9907095835
