          6
Energy: -5.325987466117082 Kcal/mole
 Xe    -5.4960051387    -2.0093919439     0.3034738372
 Xe    -6.9763126432     0.6659349835     3.4766387947
 Xe    -2.9022185208    -5.0513394627     2.1347878226
 Xe    -2.8829401032    -0.9390514141     3.7115773634
 Xe    -6.3542221158    -3.5818876978     4.4010622663
 Xe    -9.6310255622    -2.3981858098     1.7448995874
