          16
Energy: -62.30681270718814 Kcal/mole
 H     -1.9150263847    -4.4292200640    -1.2872680538
 F     -2.6449034970    -4.5530150512    -1.8284179425
 H      2.7809457365    -4.0530716408    -1.3188365963
 F      3.1677265096    -4.1667767342    -0.4952099908
 H      0.8548921410    -2.7006233520     1.6173852452
 F     -0.0448527375    -2.8766946124     1.5987555653
 H      2.8119759401    -3.1196135930     0.7328308577
 F      2.4799694625    -2.5567794342     1.3761646812
 H     -2.2037989214    -4.9738860008    -3.3663994408
 F     -1.7954773340    -5.2038897895    -4.1546003913
 H      1.5692907926    -4.5096079284    -3.1497419687
 F      2.0197206792    -3.8113499154    -2.7618790231
 H     -0.3799573090    -3.7606757629     0.2694040903
 F     -0.4654764784    -4.2408986058    -0.5071018613
 H     -0.1997681277    -5.5939244419    -3.9955408008
 F      0.6808129267    -5.7437788846    -3.7881531139
