          16
Energy: -62.305176259776815 Kcal/mole
 H     -1.8772364725    -4.4766297575    -1.2599990896
 F     -2.6178364341    -4.6535921180    -1.7709638828
 H      2.8211215378    -4.0475958059    -1.3218328235
 F      3.1940621486    -4.1588626784    -0.4915172305
 H      0.8616318831    -2.7341583912     1.6531843302
 F     -0.0345191400    -2.9281117332     1.6396032780
 H      2.8244436051    -3.1156277335     0.7374451899
 F      2.4876979397    -2.5586344905     1.3833940145
 H     -2.1994893857    -5.0480993898    -3.3215313784
 F     -1.7977516625    -5.2565767751    -4.1190481379
 H      1.6149367524    -4.5086083847    -3.1536565213
 F      2.0901303761    -3.8181603113    -2.7816867940
 H     -0.3430171796    -3.7457825839     0.2650718119
 F     -0.4124711188    -4.1889650827    -0.5347121734
 H     -0.1921134947    -5.6058238084    -3.9680262869
 F      0.6917526237    -5.7394922897    -3.7635698815
