          16
Energy: -62.30046384694805 Kcal/mole
 H     -2.0353894431    -4.2986503595    -1.4600438803
 F     -2.7490328244    -4.3122544248    -2.0357322107
 H      2.7465760756    -4.1629740668    -1.3473419006
 F      3.1150723733    -4.3421873494    -0.5269870518
 H      0.7863584147    -2.8938556663     1.5952140432
 F     -0.1227803375    -2.9847547877     1.5171558657
 H      2.7596296203    -3.4024488032     0.7822594510
 F      2.4304692693    -2.8854589551     1.4643620535
 H     -2.2686173230    -4.6459647302    -3.5807732671
 F     -1.8396062476    -4.8447824077    -4.3664640640
 H      1.5265289298    -4.4521485398    -3.2096798476
 F      2.0121808315    -3.8055155082    -2.7773640454
 H     -0.4908103020    -3.8333123981     0.1653097813
 F     -0.6005514494    -4.2972947039    -0.6179949490
 H     -0.2814293977    -5.3590806574    -4.1690290708
 F      0.5762823411    -5.5857519647    -3.9369952554
