          16
Energy: -62.30904907575966 Kcal/mole
 H     -1.8924435360    -4.4435183094    -1.2828868016
 F     -2.6265850485    -4.5770085997    -1.8159023567
 H      2.8319999188    -4.0152528365    -1.3250928098
 F      3.2197500355    -4.1206121742    -0.5008123618
 H      0.8619382585    -2.7297949707     1.6410465974
 F     -0.0350228014    -2.9194519262     1.6215505402
 H      2.8324004760    -3.1012504159     0.7434227876
 F      2.4864501608    -2.5572066539     1.3955146250
 H     -2.1869507923    -4.9832716539    -3.3574426052
 F     -1.7750060665    -5.2043568985    -4.1463100577
 H      1.6029728419    -4.4959822567    -3.1370797233
 F      2.0668084620    -3.7954774538    -2.7696038213
 H     -0.3550562849    -3.7736076053     0.2697187638
 F     -0.4338099211    -4.2351735951    -0.5187250845
 H     -0.1813100477    -5.5885052514    -3.9642354228
 F      0.6960586497    -5.7367381980    -3.7425596182
