          16
Energy: -62.22019891429079 Kcal/mole
 H     -2.1795788749     4.6848372461     1.8249790488
 F     -1.5485430949     4.3152046503     1.2717570423
 H     -1.6756166308     5.9410492551    -1.6417820000
 F     -2.3130757291     6.5036691447    -1.2982798052
 H     -5.3424324231     5.6496432101     0.4003081954
 F     -5.5141429400     5.5776314261     1.2982050722
 H     -3.9051034564     6.0586426239    -1.2698522766
 F     -4.7717648395     5.7812033123    -1.1566512370
 H      0.0946478769     4.4442845181     1.5060721441
 F      1.0043934803     4.5589533089     1.4959229803
 H      0.3289064319     4.9209051085    -1.8146296403
 F     -0.5060553701     4.9160740516    -2.1937133384
 H     -4.1919607296     5.4606058087     2.2802389501
 F     -3.3846959311     5.3780580588     2.7073202236
 H      1.5682091342     4.8099400735    -0.0315715897
 F      1.7107117851     4.9502906027    -0.9264926608
