          16
Energy: -62.295191184495465 Kcal/mole
 H      3.3619430871    -4.6389994195    -4.8221666574
 F      3.1650040736    -3.7436560274    -4.8437127721
 H      6.4191654130    -2.8458671447    -2.8190811782
 F      6.0930652903    -3.6806893832    -3.0130387515
 H      4.8078634282    -6.6478506186    -1.8961284891
 F      4.1030971574    -7.0703185340    -2.3032087809
 H      6.1407171339    -4.9435405552    -1.9380572595
 F      6.0579938173    -5.6863898640    -1.4068127232
 H      4.1869726998    -2.7288491654    -5.6288013980
 F      4.7780425807    -2.1524754504    -6.0279489102
 H      6.5043622322    -0.8115603231    -3.3047141868
 F      6.8791170941    -1.2997116392    -2.6248935589
 H      3.8571660037    -6.6011570775    -3.8702918278
 F      3.7882920666    -6.2275332559    -4.7048879102
 H      5.3569214809    -0.8563332443    -5.1887311624
 F      5.6991126285    -0.2205528510    -4.6234192927
