          16
Energy: -1.276851460663778 Kcal/mole
 H      3.5293197926    -1.0617243800    -2.4143101840
 F      4.4463197926    -1.0617243800    -2.4143101840
 H     -1.9870642511    -3.9630191915    -1.3638888222
 F     -1.0700642511    -3.9630191915    -1.3638888222
 H      4.5455864218    -2.4408469282     1.5963337093
 F      5.4625864218    -2.4408469282     1.5963337093
 H      5.9718014764     0.2223344173     4.6585431070
 F      5.4191753074    -0.5094396718     4.6585431070
 H     -3.0471245480     0.4720285979     3.0107541007
 F     -3.6193111229    -0.2445546307     3.0107541007
 H      1.8796900830     0.1149539454     0.8322285472
 F      2.7942876742     0.1149539454     0.8985628978
 H     -1.6592208273     1.1592910120    -2.4698862078
 F     -2.0913455237     1.1592910120    -1.6610863273
 H      2.4098140928     3.5506576910     4.1608738239
 F      2.2308947801     4.4500335187     4.1608738239
