          16
Energy: -62.30642993684222 Kcal/mole
 H     -1.8943637505    -4.4579694804    -1.2744915523
 F     -2.6240265962    -4.5925136020    -1.8133598209
 H      2.8372802186    -4.0207843093    -1.3181186323
 F      3.2334628786    -4.1277613028    -0.4980672785
 H      0.8705752894    -2.7202388968     1.6434387064
 F     -0.0306771181    -2.8873389204     1.6167801239
 H      2.8465369176    -3.1261090017     0.7578803809
 F      2.5028400785    -2.5879803715     1.4160437801
 H     -2.1943555245    -5.0211052898    -3.3493781222
 F     -1.7884937229    -5.2539344111    -4.1380198649
 H      1.5908902947    -4.5002708876    -3.1213089031
 F      2.0536783037    -3.7991156853    -2.7537525931
 H     -0.3619736702    -3.7683724747     0.2837806512
 F     -0.4447423683    -4.2481667064    -0.4932880960
 H     -0.1913751876    -5.6111486446    -3.9516351967
 F      0.6874265097    -5.7452211703    -3.7266437867
