          16
Energy: -62.30739613906569 Kcal/mole
 H     -1.8978232911    -4.4504350723    -1.2852236081
 F     -2.6307288891    -4.5986512618    -1.8160440537
 H      2.8334944325    -4.0091628358    -1.3214681843
 F      3.2269709157    -4.1156598560    -0.5000525515
 H      0.8686435169    -2.7245533151     1.6428060209
 F     -0.0320662455    -2.8934590915     1.6099158599
 H      2.8415362241    -3.1187618030     0.7644325787
 F      2.4976002309    -2.5857262910     1.4266033841
 H     -2.1926850157    -5.0069179758    -3.3573001987
 F     -1.7811810788    -5.2273190501    -4.1465890408
 H      1.5951713341    -4.4914153704    -3.1296382511
 F      2.0578778834    -3.7902230394    -2.7620502151
 H     -0.3589076194    -3.7499063389     0.2605995699
 F     -0.4403778176    -4.2167129329    -0.5244757198
 H     -0.1843791891    -5.5951526751    -3.9604854913
 F      0.6935901693    -5.7352938465    -3.7359431617
