          5
Energy: -2.1290219532805312 Kcal/mole
 Ar    -2.5621826010     0.4301271324     1.1290369524
 Ar    -1.5649600799    -1.7891832942     4.0615206940
 Ar    -0.8009950785     1.9455478928     4.1493789561
 Ar    -3.6056148747     3.8624241685     2.4195331985
 Ar    -4.3957447667     0.7404923760     4.4639955217
