          5
Energy: -2.1286852957149804 Kcal/mole
 Ar    -1.2249068623    -5.3137306385    -3.6802214979
 Ar     2.1375526520    -3.8377281471    -4.7356882531
 Ar    -0.6659263400    -1.5499378790    -3.5592994514
 Ar     0.6511119554    -6.7554826534    -6.6569549107
 Ar    -0.9189571404    -3.2924666262    -6.9444716486
