          5
Energy: -0.07418598201212939 Kcal/mole
 Ar     6.5827342867    -2.4022288396    -6.3029685695
 Ar    -4.4284115725    -1.3916310981    -6.4314407571
 Ar    -6.8556043406     0.1401302928     5.4953800409
 Ar    -0.0422320865    -5.9551427921     0.3934975888
 Ar    -7.4696524139    -4.8482340412     3.9296153555
          5
Energy: -0.012286808055674513 Kcal/mole
 Ar    -7.5627451629     7.6359766027     1.3385786107
 Ar    -7.0551886616     0.5912789952    -5.2676061743
 Ar    -5.2213717529    -1.0738657530     2.0167230345
 Ar     7.9823527736     6.8726910446     5.9731530184
 Ar     6.1037891079    -3.1413285521    -3.6958708531
          5
Energy: -0.2691837072512239 Kcal/mole
 Ar     0.0511035646     4.3461575836    -0.9905547473
 Ar     3.8813406107     3.5653507748     4.6054715926
 Ar    -7.1941042334    -3.1105507747     2.0471303380
 Ar     5.5580145920     0.2809828315     7.2943994883
 Ar    -4.0738178655     1.8126601231    -0.5452789918
          5
Energy: -0.39727147660125434 Kcal/mole
 Ar     0.4988534201     2.6162503831    -4.9259673003
 Ar     3.7418551951    -7.3835974621    -2.6632885797
 Ar    -2.8336440055     0.0775484797    -6.6450525220
 Ar    -2.4251151059    -6.4978932715    -6.5920764558
 Ar     3.0015623698    -6.3557569676     1.0763431062
          5
Energy: -0.6708001607670476 Kcal/mole
 Ar     7.0080151157     6.9737905728    -3.0331131422
 Ar     3.1140421353    -2.2187553026    -3.5646485414
 Ar     2.1821106845     0.6562094804    -1.7486254628
 Ar    -0.6130553435    -7.0246050817     0.3614102590
 Ar     2.9732051396    -2.5926734028     0.2796874822
          5
Energy: -0.6997964398931976 Kcal/mole
 Ar    -5.3299455714    -7.7804121158     5.1908379185
 Ar    -2.3768196328     1.4516627636    -4.8411086125
 Ar    -1.3940183367     0.0643421232    -8.2327713258
 Ar    -2.5701109025     3.8806853666    -7.6958104939
 Ar    -1.2600277348     0.0049177476     1.7448080995
          5
Energy: -1.4568799623608897 Kcal/mole
 Ar     2.7628953359    -6.9481751139    -2.7913025226
 Ar     4.3527256695    -3.6707104313    -4.9221678816
 Ar     0.8570855960    -3.3657010984    -3.8336266315
 Ar     1.4684159130    -1.1182362322    -7.2603031809
 Ar     2.4227533346    -5.1283160866    -8.2271493153
          5
Energy: -1.747595435625385 Kcal/mole
 Ar    -0.6195133206    -1.6452264934    -6.7443864392
 Ar     2.4241523780    -1.6767155688    -3.5863398993
 Ar    -0.9059172755     0.5462952944    -3.8157862417
 Ar    -2.4479330335    -3.2147620253    -3.7896104887
 Ar     0.8528854486    -4.8897001932    -5.7619697363
          5
Energy: -2.0830580068017097 Kcal/mole
 Ar    -1.2049451063    -5.3611149464    -3.7517467442
 Ar     2.1900150980    -3.7565441198    -4.6933414285
 Ar    -0.6191697479    -1.5374355757    -3.6937443744
 Ar     0.6476944152    -6.6024964434    -6.8198456003
 Ar    -1.0368155819    -3.3809583663    -6.9630630449
          5
Energy: -2.1286852957149804 Kcal/mole
 Ar    -1.2249068623    -5.3137306385    -3.6802214979
 Ar     2.1375526520    -3.8377281471    -4.7356882531
 Ar    -0.6659263400    -1.5499378790    -3.5592994514
 Ar     0.6511119554    -6.7554826534    -6.6569549107
 Ar    -0.9189571404    -3.2924666262    -6.9444716486
