          32
Energy: -131.70810747290037 Kcal/mole
 H     -4.3898098776     1.3860890822    -6.3388040194
 F     -3.7509553464     1.9857559141    -6.0683348367
 H     -7.6805579185     1.9882777696    -4.6930979271
 F     -7.7790536150     1.4961635177    -5.4605685525
 H     -4.7222586161     5.2563117683    -4.4662552756
 F     -4.6473027730     5.9792388734    -3.9071067960
 H     -1.6435367874     2.5260748416    -4.1073331169
 F     -1.2818958472     1.6904943045    -3.9982001875
 H     -2.3366756262     0.4096829806    -3.9732613717
 F     -3.0155114571    -0.2013682437    -3.8914853604
 H     -8.1450174068     5.9322111984    -3.5550918428
 F     -8.7050299820     5.2067325573    -3.5241781403
 H     -6.0993678993     6.7852733495    -3.7863060135
 F     -6.9626497919     7.0898609011    -3.7328289399
 H     -4.9862611221     5.9525021935    -1.0261920272
 F     -4.1996838394     6.3915866695    -0.8547569040
 H     -2.8473067479     5.8184572162    -1.6399064250
 F     -2.1437840590     5.4174855077    -2.0702162148
 H     -2.3599136192     4.5258223258    -3.4446406666
 F     -2.4652254003     3.9784208247    -4.1727546861
 H     -4.5022093408     0.4666997515    -3.7246271871
 F     -5.2667915054     0.9631833874    -3.6255963187
 H     -7.9653541179     3.7498395839    -3.3549420872
 F     -7.4928037774     2.9640777287    -3.3421560532
 H     -4.6057729146     3.3298473916    -5.6369684622
 F     -5.2249364900     3.9574610044    -5.3847252858
 H     -5.8387761294     4.1676039367    -1.7173281621
 F     -6.2334170851     4.9681404515    -1.5068791077
 H     -6.4893516586     0.7810111380    -6.2368293176
 F     -5.7305738933     0.4915494709    -6.6626899123
 H     -5.0219322533     2.2516796419    -2.6105945051
 F     -4.7393334838     2.9610665002    -2.1028571510
