          32
Energy: -131.68384039813975 Kcal/mole
 H     -4.4291569915     1.3595587504    -6.1850602599
 F     -3.8078824952     1.9595834944    -5.8770386588
 H     -7.7305859258     1.9100183291    -4.6979714750
 F     -7.8297968327     1.3799431043    -5.4396361243
 H     -4.6953098061     5.3574659685    -4.5238912132
 F     -4.6272361196     6.0636995017    -3.9429530324
 H     -1.7211773797     2.5797326296    -4.0152616292
 F     -1.3802570578     1.7475407732    -3.8360437494
 H     -2.3886623308     0.4254222763    -3.8297010907
 F     -3.0309926777    -0.2251977135    -3.7590303458
 H     -8.1246190178     5.9327725531    -3.5721950180
 F     -8.6768777803     5.2009542062    -3.5537243313
 H     -6.0957888347     6.8301509527    -3.7935533728
 F     -6.9653033930     7.1137058824    -3.7269948665
 H     -4.9526439838     5.9474601352    -1.0570645624
 F     -4.1816195614     6.4059320204    -0.8667651387
 H     -2.8210223209     5.8966308321    -1.6738489032
 F     -2.1140178196     5.5217844873    -2.1216478010
 H     -2.3311303231     4.6280084561    -3.4944532875
 F     -2.4425360796     4.0679739747    -4.2119762050
 H     -4.5654864824     0.3442093069    -3.6051505623
 F     -5.3550061511     0.7997320325    -3.5049171384
 H     -7.9385067031     3.7424736043    -3.4186146666
 F     -7.4737084545     2.9520127015    -3.4138032870
 H     -4.6009515489     3.3993057969    -5.6357576271
 F     -5.1922785264     4.0826664844    -5.4800669835
 H     -5.7729940222     4.1504838146    -1.8151722436
 F     -6.1691974282     4.9422378653    -1.5763472359
 H     -6.5103403224     0.7031066478    -6.1933528052
 F     -5.7281104233     0.4466833277    -6.5973979336
 H     -5.0399889103     2.1857383835    -2.6569353709
 F     -4.7078608043     2.9379778499    -2.2510835427
