          32
Energy: -131.59740728388496 Kcal/mole
 H     -2.4032631143    -0.1644633678    -1.6278462135
 F     -1.8798733755     0.5865994691    -1.6812952206
 H     -5.3933553405    -0.0819076039    -3.9208714946
 F     -5.2049447148    -0.9367402452    -3.6476470603
 H     -1.7485281184     2.8705932167    -4.5991885856
 F     -1.4524947207     3.5755985628    -5.1053710521
 H     -1.6628222428     3.3741549166    -0.4598085235
 F     -1.9494347377     3.2528671274     0.4027641111
 H     -3.1179641863     2.1211861369     0.7094971575
 F     -3.8232121152     1.5357997313     0.7384300948
 H     -3.9842603191     2.2584421412    -7.0907042722
 F     -4.6644144221     1.6849491469    -6.8684765024
 H     -2.1453154382     3.4053118230    -6.6092420915
 F     -2.6452062505     3.2130757680    -7.3535830583
 H     -3.5732574889     5.6080230253    -5.0006060740
 F     -3.0262624860     6.3309194229    -4.8623806602
 H     -1.8696620434     6.1573846313    -3.6781038981
 F     -1.3134640003     5.9744798409    -2.9723570778
 H     -1.2657288188     4.4298141889    -2.4081606694
 F     -1.3266170481     3.5747989984    -2.0823836789
 H     -4.5499909294     1.3517940648    -0.7077398713
 F     -4.8542245701     1.3412846839    -1.5727372382
 H     -5.3153510964     1.5970169279    -5.3459460167
 F     -5.6274588861     1.4752573275    -4.4923346723
 H     -2.2305170718     1.2685926668    -3.1340842728
 F     -2.5431943061     1.5663887459    -3.9430585879
 H     -4.6296050709     3.9475101421    -4.1414732640
 F     -4.4323835029     4.1820678197    -5.0057506206
 H     -4.1532298453    -1.2605481918    -2.3840245915
 F     -3.4961232261    -1.3819018138    -1.7560331987
 H     -4.8252952810     2.8511137298    -2.2441247308
 F     -4.6776800067     3.7134177124    -2.5189529906
