          32
Energy: -131.68742867249532 Kcal/mole
 H     -4.4271352226     1.3607214514    -6.1884723974
 F     -3.8062261071     1.9615199121    -5.8812231827
 H     -7.7246503561     1.9122135303    -4.6942963767
 F     -7.8232154075     1.3895943004    -5.4413191816
 H     -4.6943575095     5.3473934629    -4.5191734143
 F     -4.6273058349     6.0495585785    -3.9332065011
 H     -1.7126716233     2.5799056283    -4.0148092800
 F     -1.3746165395     1.7465066659    -3.8357731668
 H     -2.3879136838     0.4284265284    -3.8277458633
 F     -3.0329890241    -0.2194569618    -3.7569377538
 H     -8.1212196126     5.9299800048    -3.5783367002
 F     -8.6716109515     5.1966039330    -3.5674780007
 H     -6.0932483451     6.8269857968    -3.7839737382
 F     -6.9615603366     7.1138640880    -3.7159727709
 H     -4.9583511630     5.9445994278    -1.0488813150
 F     -4.1873441293     6.4077292224    -0.8701414276
 H     -2.8224988034     5.8977926073    -1.6769878281
 F     -2.1123812613     5.5236780532    -2.1204518930
 H     -2.3263683746     4.6314926850    -3.4933088945
 F     -2.4337363104     4.0721441166    -4.2119814941
 H     -4.5620282324     0.3565872141    -3.6077215582
 F     -5.3501355350     0.8149099538    -3.5091510466
 H     -7.9380639723     3.7371622838    -3.4141909009
 F     -7.4747673633     2.9458952077    -3.4022885360
 H     -4.6009335524     3.3953068308    -5.6440981377
 F     -5.1913748874     4.0793593689    -5.4880848209
 H     -5.7739214038     4.1442989487    -1.7959336371
 F     -6.1753090614     4.9311574790    -1.5497008170
 H     -6.5086802513     0.7062551110    -6.1967275748
 F     -5.7276714055     0.4462928102    -6.6008733220
 H     -5.0331735080     2.1950509143    -2.6573079724
 F     -4.7010422291     2.9457117052    -2.2485461952
