          32
Energy: -131.67455867057868 Kcal/mole
 H     -4.4168653392     1.3491392144    -6.1463103925
 F     -3.8058321747     1.9541767459    -5.8277871479
 H     -7.7250654048     1.8394756790    -4.6877534557
 F     -7.8215002532     1.2953909606    -5.4195738840
 H     -4.6602836927     5.3522041002    -4.5100608010
 F     -4.5945948021     6.0521065579    -3.9212395044
 H     -1.7043267569     2.5329129496    -4.0117633849
 F     -1.3684648430     1.6971725535    -3.8396478274
 H     -2.3831373927     0.3831954640    -3.8397322109
 F     -3.0321782116    -0.2612831977    -3.7742931554
 H     -8.1017876864     5.9025653253    -3.6768215638
 F     -8.6508259729     5.1681017427    -3.6798556579
 H     -6.0747875096     6.8119365423    -3.8143800692
 F     -6.9483197374     7.0886822582    -3.7791344215
 H     -4.9839097491     5.8794636396    -1.0670848649
 F     -4.2063223531     6.3185880140    -0.8587183002
 H     -2.8291444910     5.8083242621    -1.6367931260
 F     -2.1096345206     5.4365131092    -2.0668522720
 H     -2.3063470165     4.5742483281    -3.4546152880
 F     -2.4092581098     4.0317991275    -4.1867677118
 H     -4.5523095799     0.3129817926    -3.5805426540
 F     -5.3394214283     0.7684045713    -3.4625001591
 H     -7.9204612837     3.7084039806    -3.4757240492
 F     -7.4630698852     2.9146270438    -3.4357205088
 H     -4.5861574102     3.3990886399    -5.6174146924
 F     -5.1668467685     4.0950712640    -5.4785008480
 H     -5.8115601757     4.1131234401    -1.8381191798
 F     -6.2128587574     4.9045100622    -1.6066982156
 H     -6.4868950398     0.6511042350    -6.1769846624
 F     -5.6962203078     0.4154069156    -6.5771961588
 H     -5.0203326537     2.1559395206    -2.6394182665
 F     -4.7032919747     2.9198891816    -2.2434951387
