          32
Energy: -2.862341587669448 Kcal/mole
 H     -0.1018359253     0.0047199742    -5.8096450948
 F     -0.6290454594     0.7550126551    -5.8096450948
 H     -3.3717524192     2.9635451750    -3.6137064895
 F     -2.4547524192     2.9635451750    -3.6137064895
 H     -5.2321855930     3.4873822436     4.9798059742
 F     -4.3151855930     3.4873822436     4.9798059742
 H     -0.0383613491     2.6810716027     1.0625557916
 F     -0.9509653336     2.6810716027     0.9728731987
 H     -1.6092085292    -2.3536733259    -2.8782089094
 F     -0.7336712267    -2.3536733259    -3.1508321513
 H     -2.6468578330    -4.6426565556    -0.6181451188
 F     -1.7298578330    -4.6426565556    -0.6181451188
 H      5.8544988083     4.1356030468     0.0875428137
 F      4.9380968960     4.1024890742     0.0875428137
 H     -5.9889338414    -5.9543732093     1.1982104951
 F     -5.0719338414    -5.9543732093     1.1982104951
 H      2.3900809291    -5.5431106497     3.5356404954
 F      2.8366073987    -5.5431106497     4.3365793895
 H      4.5113393757    -2.2496183152     1.3485393334
 F      4.2439972294    -3.1267825967     1.3485393334
 H     -1.9093775518    -5.0292406564    -5.8865694294
 F     -2.8182725550    -5.0292406564    -5.7649188104
 H     -5.3146643314    -0.3521260134     4.2720651835
 F     -4.4980537340    -0.7693023936     4.2720651835
 H      4.9440973862     4.0551440477    -4.7259681680
 F      4.4623662375     4.8354158596    -4.7259681680
 H      3.9787985552    -2.7835123994    -2.8548524453
 F      4.8957985552    -2.7835123994    -2.8548524453
 H      1.0290249844     4.8341495397     3.9228033376
 F      1.9460249844     4.8341495397     3.9228033376
 H     -5.0863602925    -3.0328662561    -3.2870198163
 F     -5.0481402041    -3.9490694131    -3.2870198163
