          32
Energy: -131.67949295598376 Kcal/mole
 H     -4.4430768612     1.3624086897    -6.1649107144
 F     -3.8258332632     1.9643902759    -5.8526327765
 H     -7.7386415894     1.9025592897    -4.6930091215
 F     -7.8341995709     1.3699156728    -5.4333120659
 H     -4.6807310723     5.3755733708    -4.5303979813
 F     -4.6084128050     6.0817865633    -3.9499481600
 H     -1.7205608157     2.5812838180    -3.9955563182
 F     -1.3863445783     1.7493810430    -3.8028745092
 H     -2.3887960463     0.4239158169    -3.7913995616
 F     -3.0290880035    -0.2288020077    -3.7215808597
 H     -8.1319241380     5.9303392130    -3.5840065070
 F     -8.6901207802     5.2029667882    -3.5686812222
 H     -6.0869198984     6.8295965320    -3.7960924514
 F     -6.9590349654     7.1049052070    -3.7289400625
 H     -4.9493153416     5.9423518660    -1.0718939563
 F     -4.1792979739     6.4021036021    -0.8806072745
 H     -2.8132498682     5.9069139165    -1.6850269808
 F     -2.1016315568     5.5378588559    -2.1303209750
 H     -2.3143486052     4.6420584475    -3.5024217270
 F     -2.4249917808     4.0785855658    -4.2173660600
 H     -4.5649009456     0.3375394939    -3.5855610961
 F     -5.3554560257     0.7924123734    -3.4906804933
 H     -7.9473042994     3.7437406532    -3.4195657571
 F     -7.4810408072     2.9541839903    -3.4102045652
 H     -4.6060685649     3.4115438235    -5.6263392016
 F     -5.1897699455     4.1030769208    -5.4781377391
 H     -5.7702463213     4.1466895296    -1.8267670601
 F     -6.1662850514     4.9386896210    -1.5884853374
 H     -6.5125241892     0.6920013181    -6.1856088576
 F     -5.7281327035     0.4387934506    -6.5874854221
 H     -5.0290186877     2.1796028817    -2.6598269293
 F     -4.6954161367     2.9358145241    -2.2626590935
