          32
Energy: -131.62939892471525 Kcal/mole
 H     -4.4044927517     0.5921641755    -6.1142029769
 F     -3.8896949215     1.2342214340    -5.7096851518
 H     -7.8809215415     0.8338635639    -5.2913931163
 F     -7.8741657155     0.1942111497    -5.9484229085
 H     -4.8236046333     4.8540587627    -5.1705116050
 F     -4.8253679211     5.6685598876    -4.7492352013
 H     -2.0282322574     2.1664882058    -3.7284486187
 F     -1.6799233448     1.3793950796    -3.4121349893
 H     -2.5429509763    -0.0458019608    -3.4860104275
 F     -3.1017925030    -0.7727917825    -3.4775874176
 H     -8.2973172643     5.0579749077    -4.8949675937
 F     -8.7843998770     4.2817395653    -4.9281070230
 H     -6.3783878764     6.2246387224    -4.8479248432
 F     -7.2795005099     6.3801730213    -4.9164383715
 H     -5.6338854363     5.4335976402    -1.9108378623
 F     -4.9697798889     5.9510455029    -1.5473814944
 H     -3.4171353159     5.6916083923    -2.0924029786
 F     -2.6043508512     5.4228295317    -2.4210796253
 H     -2.6480774800     4.2953452660    -3.6190396893
 F     -2.7212151444     3.6078750827    -4.2214719503
 H     -4.7148660567    -0.4346413027    -3.5547829095
 F     -5.5631377932    -0.0868930002    -3.5746620227
 H     -8.1107509169     2.8707251630    -4.4098207999
 F     -7.7181837148     2.0724627067    -4.1872066880
 H     -4.6728295753     2.6996493861    -5.8121612038
 F     -5.2495669876     3.4097851184    -5.8751707187
 H     -6.2124818388     3.5258445883    -2.6656232069
 F     -6.6222542602     4.3461895886    -2.6625178839
 H     -6.3960999424    -0.2820729622    -6.4960455521
 F     -5.5308317498    -0.4160061627    -6.7685558319
 H     -5.3974284763     1.4360217394    -2.9420026798
 F     -5.1323305664     2.2583924736    -2.6348895513
