          32
Energy: -131.66145954613327 Kcal/mole
 H     -4.5562934361     1.3781199361    -6.5377112241
 F     -3.9373303377     2.0027907499    -6.2777880486
 H     -7.7441191706     1.6469174093    -4.6453006184
 F     -7.8637176412     1.1431817788    -5.4021596677
 H     -4.9056964859     5.2236089341    -4.6070129748
 F     -4.8100701650     5.9679877698    -4.0800929090
 H     -1.6804625884     2.6651594612    -4.5397097786
 F     -1.2511608353     1.8570013266    -4.4808078746
 H     -2.2085901238     0.5051094323    -4.3725648677
 F     -2.8292444161    -0.1566647489    -4.2394026265
 H     -8.2420587888     5.6395766548    -3.5251102811
 F     -8.7538031966     4.8788721884    -3.5067970094
 H     -6.2940310111     6.6577939335    -3.8247664820
 F     -7.1708001334     6.8919261993    -3.6930585162
 H     -5.0273905607     5.8171571767    -1.2044566224
 F     -4.2691815285     6.3129511306    -1.0623425179
 H     -2.9226980725     5.7968427861    -1.9022918220
 F     -2.2272102410     5.4161547663    -2.3630111593
 H     -2.4732131375     4.5780365222    -3.7605116473
 F     -2.5991205173     4.0517203378    -4.5008005138
 H     -4.3677825119     0.3677591558    -3.9735861126
 F     -5.1688467032     0.7849129410    -3.8149422318
 H     -7.9761368295     3.4367761685    -3.3366748157
 F     -7.5045679934     2.6504273740    -3.3237362601
 H     -4.8242639356     3.2838675579    -5.7365862723
 F     -5.4483632347     3.8743731765    -5.4161300674
 H     -5.7987921947     3.9578188312    -1.8629880537
 F     -6.2164262532     4.7466288120    -1.6526321473
 H     -6.5841204426     0.6054942355    -6.3296594824
 F     -5.8436202647     0.4188102596    -6.8372987043
 H     -4.9499060126     2.0682723226    -2.7902084028
 F     -4.6760113352     2.7849627012    -2.2879877273
