          3
Energy: -0.3850408589055905 Kcal/mole
 Kr    -1.1113884916     1.4673417639    -1.1038079955
 Kr     3.1623293724     2.1338869536    -4.9207544973
 Kr     2.5971701542    -1.4196624461    -7.2033184024
          3
Energy: -0.18181968866524562 Kcal/mole
 Kr     2.9138991604    -4.9501193964    -3.6489709735
 Kr    -5.2648987936    -6.1181961206    -0.4113734644
 Kr     4.5496102147    -1.1391501081    -1.0480032113
          3
Energy: -0.3050152248891773 Kcal/mole
 Kr     4.0127245776    -2.3227093112    -0.5880924820
 Kr     4.1859819538     5.4401052979    -5.7935876838
 Kr     2.9588433538     0.2044814185     2.2160390277
          3
Energy: -0.005563178093783018 Kcal/mole
 Kr     4.9315192078    -4.4433182775     3.7290030334
 Kr     6.4802152413     4.5962816798     3.2041988760
 Kr    -1.5767062226     6.3596471364    -6.6025890203
          3
Energy: -0.2341632690842652 Kcal/mole
 Kr    -0.7917338150     0.2722470690    -5.4210213982
 Kr    -4.0697441853     4.2711115691    -0.1649750600
 Kr    -3.3992104261     3.6470214879     4.4234113582
          3
Energy: -0.27167217609158484 Kcal/mole
 Kr     6.7481709343     0.8769254399     1.5597851253
 Kr     4.5718933046     4.7053963880     1.4520412210
 Kr    -6.8027944286    -4.9860384720     5.4219605894
          3
Energy: -0.8749153341943322 Kcal/mole
 Kr    -4.5121850979     1.1657817661     6.0584766202
 Kr    -3.0580849838    -2.0300711098     4.4071535303
 Kr    -5.5488702081     0.7959157968     2.2513319828
          3
Energy: -0.761901963747467 Kcal/mole
 Kr    -1.2113417358     1.9076897714     2.7779532363
 Kr    -1.2029337882     5.6772265584     0.5047751006
 Kr    -0.2115639262     6.4211993408     4.2789389695
          3
Energy: -0.8903339279826039 Kcal/mole
 Kr     4.8545154582     3.0730493447    -3.9742272896
 Kr     2.3131757784     3.5599601938    -0.8858913513
 Kr     6.0768811060     5.5535801235    -0.5860114333
          3
Energy: -0.9509990254622523 Kcal/mole
 Kr     5.0381613878     3.3145076833    -3.8115906735
 Kr     2.3771551255     3.5290257751    -0.7416591110
 Kr     5.9875486600     5.3763047844    -0.4367887103
