          3
Energy: -0.004031106006347043 Kcal/mole
 Kr    -4.3095104273     4.7680326542    -4.8811113803
 Kr     5.2645363177     5.9232451618    -6.2463046119
 Kr     2.0805794452    -4.2306844595     3.7558537962
          3
Energy: -0.3021946148058717 Kcal/mole
 Kr     2.9626516249     0.4524690500     3.5292112981
 Kr    -0.2309456085    -1.5620407099     4.6135647982
 Kr    -6.7483532127    -0.2055578635    -4.2266104106
          3
Energy: -0.33561143954140116 Kcal/mole
 Kr    -2.1133986747    -1.9534640281    -3.9953582754
 Kr    -2.8440328116     1.6484836863    -2.1994960612
 Kr     4.6387402464    -1.3745426613    -7.3410177633
          3
Energy: -0.5945089620191948 Kcal/mole
 Kr     5.0721082123    -3.1909774727     4.1829134089
 Kr     3.9041792412    -1.2410759575    -0.3965256137
 Kr     1.4875333450    -4.4853651299     0.9230219315
          3
Energy: -0.6348194597316117 Kcal/mole
 Kr     4.9843673897     4.5308774342    -6.0354390253
 Kr     1.6748511811     3.3536090427    -7.3511006550
 Kr     1.1106059316     3.3221780344    -3.0733391892
          3
Energy: -0.9082022940112403 Kcal/mole
 Kr    -0.9505442008     1.7504397385     5.6096715770
 Kr     1.0755468601     0.8566337186     2.2065636123
 Kr    -2.8651918516    -0.7548226207     3.1682837022
          3
Energy: -0.9130754399419406 Kcal/mole
 Kr    -3.2352063059    -4.9193082553     5.1989113296
 Kr    -0.6124261930    -7.2885798404     7.1082783330
 Kr     0.2798248562    -6.5685128146     3.2977575732
          3
Energy: -0.836869110820719 Kcal/mole
 Kr     3.1911815738    -4.4975116987     4.6920825940
 Kr     0.3074413255    -2.3644095217     3.0960090311
 Kr     3.2686651410    -3.6011804666     0.2483344944
          3
Energy: -0.9417896567192521 Kcal/mole
 Kr    -2.6759675398    -1.2897025575    -3.8948630740
 Kr    -2.1502524742    -4.3339937079    -6.5188083199
 Kr    -5.6539143916    -2.0365758332    -6.5157707833
          3
Energy: -0.9509993156813842 Kcal/mole
 Kr    -2.5129100203    -1.3764254578    -3.9270174016
 Kr    -2.3450868844    -4.4193723568    -6.6212905440
 Kr    -5.4892706347    -1.8397417825    -6.6619811359
