          3
Energy: -0.014498512787829767 Kcal/mole
 Kr     4.3973287932     6.9970127657    -3.7345056955
 Kr    -3.8120505248    -0.1944047499    -1.0225837625
 Kr    -2.3844291308    -4.6627131837    -7.2464456734
          3
Energy: -0.01164762716370257 Kcal/mole
 Kr    -4.9611365427    -3.4285142583    -4.9856140699
 Kr    -6.6170045947     5.9519028341    -6.1794503036
 Kr    -2.7271332499    -6.1158933466     2.7199854762
          3
Energy: -0.25094289733203834 Kcal/mole
 Kr    -4.4814389778     0.2507398670    -3.6509239027
 Kr    -0.1214666434     1.3628332377    -3.9854127519
 Kr     3.5552762463    -6.4187499147     3.6543920703
          3
Energy: -0.18378205196542946 Kcal/mole
 Kr     1.1252663769     6.7773760283     2.3782012637
 Kr     4.1889982231     5.4015232339    -2.4238564093
 Kr     6.5642764613     1.9835109186     1.1121565933
          3
Energy: -0.5391961576981323 Kcal/mole
 Kr    -5.7254483937    -3.5654264980     7.1115895785
 Kr     1.4157257820    -6.8676725219     4.7035769110
 Kr    -1.4339625131    -4.3233062707     7.1015791984
          3
Energy: -0.919575032280333 Kcal/mole
 Kr     1.7536475243    -3.3178547117     1.1705200938
 Kr     3.5855304287    -6.3777637771    -0.5436769466
 Kr     2.8045322470    -2.8093967854    -2.5996472456
          3
Energy: -0.9010668476994079 Kcal/mole
 Kr    -7.3291855383    -0.1284590915     5.9461706847
 Kr    -3.8992188166    -1.9078919278     5.3987649420
 Kr    -6.2175095609    -0.9089115399     1.9837464833
          3
Energy: -0.8374532490912623 Kcal/mole
 Kr    -1.1911367179     0.8181665248    -2.0361110214
 Kr    -1.5102080679     1.9750417239    -6.3674455059
 Kr     1.9154442107     2.7242104384    -3.6972839994
          3
Energy: -0.8503416409619061 Kcal/mole
 Kr    -6.6406690322    -6.2083540603    -3.6373002922
 Kr    -3.5189136565    -7.3168544602    -6.2305516966
 Kr    -4.8189270303    -3.2468607144    -6.5118467595
          3
Energy: -0.9509963230015628 Kcal/mole
 Kr    -6.5768737386    -5.9182129109    -3.8598655335
 Kr    -3.1757517409    -7.1365411486    -5.7337995275
 Kr    -4.8577418098    -3.5574424321    -6.6907867370
