          6
Energy: -0.00486052384687943 Kcal/mole
 He    -2.8584242538    -7.1253324580    -5.5429166615
 He    -0.0852309340     7.0673216315     0.0228160097
 He    -0.8798147770    -0.1938164981    -0.8301016406
 He     3.0282069402     1.1777853032    -0.1300990262
 He     7.2372477916     6.4353304896     3.7690025304
 He     5.4374239238     4.1986886114    -5.6670485304
          6
Energy: -0.023068675791137305 Kcal/mole
 He    -4.8951215872     7.1839140587    -3.5414670166
 He    -6.2521509972    -6.9212903303     3.7286352673
 He     2.4814072296     6.9207534256    -2.0193239130
 He     4.7863814617     4.7027132102    -2.5170813770
 He    -6.5416076276    -3.8424939633     5.7066399118
 He    -0.9838055051     5.6599222169     5.1155948688
          6
Energy: -0.013864107211996386 Kcal/mole
 He    -7.2515002089     1.2190077586    -5.1673042683
 He     1.6399573918     7.1774218422     0.7201554893
 He    -5.3486297292    -1.9268437338    -4.7411531086
 He    -5.8169966580    -5.7351261128    -3.9963283617
 He     2.1304318967    -6.3933713355     4.5691865265
 He     2.8220684906    -3.3461310581    -4.0510762929
          6
Energy: -0.0027413150063477477 Kcal/mole
 He    -1.5256010422     5.7130529508     2.7071494987
 He    -0.4986157349     1.1824905357     2.8772244152
 He    -4.4289836521    -4.5808907615     3.8143674039
 He    -7.0960438398     2.1094668096    -3.7707582092
 He     4.6376085794     4.8499748009     6.6060425550
 He     5.7464219461    -2.3023225164    -6.3297337216
          6
Energy: -9.637218138884399E-4 Kcal/mole
 He    -3.5309378220     7.3472630713     5.4637977810
 He     5.5937418080     1.0406154901     4.6738090588
 He    -7.2646389957    -2.7502273103     4.8580652998
 He     3.2006633857    -6.9940449701    -4.8818823647
 He     2.2458609295    -1.0980809524    -6.2306195783
 He    -1.1218635938    -0.0118452479     2.9840783280
          6
Energy: -0.001617924086602836 Kcal/mole
 He     2.5754549242    -0.1476937763     5.4257600066
 He     1.7048525210     7.3908150171     0.9915984928
 He    -3.1731660798    -5.8926227862    -1.4294423020
 He     0.6655460868     4.2406024125    -4.9156042862
 He     2.9092900094    -2.1680993058    -2.4780913827
 He     0.1420601700    -3.2546829202    -7.3485212467
          6
Energy: -0.006379964801611087 Kcal/mole
 He     3.8390643333    -3.3269156533     0.6383407448
 He    -3.5506439231    -3.9780562217     5.2710201468
 He     1.1415859705    -7.1379033396    -4.9395799426
 He    -2.1175865480     7.1705386607     1.5478321271
 He     2.5553769391    -4.1947704560    -7.1427552192
 He    -6.1685570979     6.4745171452     5.8062067740
          6
Energy: -0.0029104911650422965 Kcal/mole
 He    -4.7251911942     3.4908784091     7.4673806285
 He     4.4153584072    -3.0854979453    -0.7530297597
 He     6.1524922904     3.8738380467     2.5792032546
 He     0.2232533447    -0.6007067454    -0.9550229652
 He    -6.2861078532     7.1544398657    -3.7578062900
 He     0.7326339689     5.1848693450    -0.2816822016
          6
Energy: -0.003535333898842738 Kcal/mole
 He    -2.1394902158     0.1343611726    -4.8315684958
 He     1.2116407256    -0.2873155686     0.3809169038
 He     2.2859569050    -4.2084551583    -5.8386055393
 He    -2.6706060291     7.3671457918    -3.2036242873
 He    -1.3652266321    -7.1007501430    -3.2752520486
 He     2.8094984278     3.4746830984    -3.9166630396
          6
Energy: -0.2458047071573835 Kcal/mole
 He     0.2109507987     0.4128268891    -5.3236956467
 He     3.0151639818    -0.2163418870    -5.0247367223
 He     1.0266469835    -1.8729431084    -3.8216662992
 He    -1.1007231402    -0.2419022966    -2.8522018719
 He     3.4003994295    -1.2871626315    -2.3820104886
 He     1.5240319346     0.8363650753    -2.8268987902
