          6
Energy: -0.2458047071573835 Kcal/mole
 He     0.2109507987     0.4128268891    -5.3236956467
 He     3.0151639818    -0.2163418870    -5.0247367223
 He     1.0266469835    -1.8729431084    -3.8216662992
 He    -1.1007231402    -0.2419022966    -2.8522018719
 He     3.4003994295    -1.2871626315    -2.3820104886
 He     1.5240319346     0.8363650753    -2.8268987902
