          6
Energy: -0.02518784595708736 Kcal/mole
 He    -2.4889343705    -5.7131626901    -5.5887686700
 He    -6.7492441098     2.9532034723    -6.3069848547
 He     5.8147417308     0.5042581323     2.1464283993
 He    -1.8876240214     1.7365168672     3.6468576070
 He    -4.4926824748     3.5135784994    -4.7334845162
 He    -2.1151529950     3.8880036596     0.1534338700
          6
Energy: -0.014168062707323913 Kcal/mole
 He    -4.6012067513    -4.8345916378     3.7163728604
 He    -2.8359055724    -0.5187867418    -1.6034944303
 He    -5.6616776464    -5.4821127829    -5.1984125188
 He    -0.9836649347     1.8725840164    -2.9553233459
 He     2.7987857203    -7.1555275337     3.7543355619
 He     1.7148800127     1.1564591879     5.4969923632
          6
Energy: -0.019638717230928554 Kcal/mole
 He     2.3480955089     2.6529056202     3.6691774479
 He     6.5812134149    -5.4421935306     4.2793916176
 He    -2.4292543133    -3.5142101275    -3.4302439109
 He     4.3586791150    -3.3731606278     4.9056826833
 He     5.5485364058    -0.2683171792    -0.2681017031
 He    -0.9464667438    -2.3003654470     7.1681559915
          6
Energy: -0.013997725742617153 Kcal/mole
 He     6.1329681549    -1.1194348028    -0.0526377297
 He    -1.9754450676    -0.6655372043    -6.0576643519
 He     2.8867518020     1.6437534985    -0.9284230037
 He     1.1274948820     3.9268251201    -3.6276195667
 He    -0.7660607275    -3.0459309728    -2.6689792091
 He     6.1137417481     2.4851748174     4.8211366698
          6
Energy: -0.008107948938156811 Kcal/mole
 He    -6.0792381535    -5.5749147295    -5.4454881782
 He     2.1062289764    -6.1825555266     6.3689515701
 He    -4.2893897048    -5.7651418313     2.2857008725
 He     7.1878970724    -4.3698341818    -5.5922437897
 He    -3.2886716832     0.2638304533    -6.2287018025
 He    -3.5929201196    -0.8991439138    -2.6410395426
          6
Energy: -0.016662319864323746 Kcal/mole
 He     5.5641401714    -4.4609679645    -7.3848345852
 He    -2.9322095259     4.1565379613     3.5594706464
 He     1.1956578399    -1.0447372547     0.1798861486
 He     6.4886722356     4.5703738536     7.1459237566
 He    -0.9550864527    -2.5474085937     4.1374511371
 He     5.2980324378    -1.2691827628    -6.7761461847
          6
Energy: -0.019367897286226603 Kcal/mole
 He    -4.3961096948     3.0393151993     5.8340799174
 He    -3.0079899070    -0.6220773757    -4.2741071791
 He    -0.6666812599    -4.4548050168     3.0399337156
 He    -0.7298838711     1.5580964596     2.1071255207
 He     6.1198490944     4.6240245277    -7.3763033239
 He     0.0596782080     3.2896069494     4.0164652338
          6
Energy: -0.013956108893678366 Kcal/mole
 He    -3.3229789113     3.0576532620     3.4390949014
 He    -0.8778453784    -3.8114458686    -1.3121506250
 He    -1.9837132474     5.9762163381     6.3399893903
 He     0.6903067505    -4.4056140674     2.3778474343
 He    -0.9535736231    -2.5327891934    -7.4675470080
 He    -1.7259905530    -3.8026406805     1.9672171287
          6
Energy: -0.010965548715261512 Kcal/mole
 He    -5.9712400268     2.5716028161     0.8697424237
 He     0.9881670759     2.8050836699     2.3721087637
 He     6.5024040972     0.3268337610    -1.2799383652
 He    -4.6502436745    -4.0841369083     3.8493706951
 He     0.0428092824    -0.3851688459    -6.0275761993
 He    -3.9401798091    -3.9638370283     0.3978991676
          6
Energy: -0.2458958060087503 Kcal/mole
 He     0.5297811282     0.1602015155     0.2715323070
 He     0.2806732828     2.9794566659     0.7524822725
 He     0.8481660218     1.1972535824     2.9048483954
 He    -1.7507011082     1.2262282215     1.7172871710
 He    -2.0419237895    -1.0798686016     0.0559030303
 He    -0.5852917222    -1.2559204343     2.5308013949
