          6
Energy: -0.0023384912359133837 Kcal/mole
 He     3.9200541574     4.9916955262     4.4773481643
 He     4.5152350732    -4.7851928241     2.4545714296
 He    -2.4086947380    -3.6409624154     0.9546969799
 He     4.3081514913     1.5968038340    -3.6902408867
 He    -0.6703324268     1.6503091082     2.8149970073
 He    -3.0708860374     2.4266046998    -2.5943663572
