          6
Energy: -0.2458958060087503 Kcal/mole
 He     0.5297811282     0.1602015155     0.2715323070
 He     0.2806732828     2.9794566659     0.7524822725
 He     0.8481660218     1.1972535824     2.9048483954
 He    -1.7507011082     1.2262282215     1.7172871710
 He    -2.0419237895    -1.0798686016     0.0559030303
 He    -0.5852917222    -1.2559204343     2.5308013949
