          6
Energy: -0.013291505253499564 Kcal/mole
 He     3.5025640620    -1.6724855852    -0.9618040032
 He     6.7415574262     4.3606572396    -4.7985879695
 He    -2.6476261190    -7.0825505262    -1.8216740833
 He     0.8014029400    -4.8545412347    -4.4214314478
 He     5.8526802478     1.2866048935     6.8293673703
 He     4.3491840557     5.4076201214    -7.1107295218
          6
Energy: -0.005607095991514753 Kcal/mole
 He    -2.2884705103     1.5207544308     0.4533944595
 He     2.6842362770    -2.2886462338    -1.4619021611
 He    -5.9819016057    -6.2520831552    -0.3964621872
 He     0.0350192776    -5.0011473407     7.1796969610
 He    -4.9437615212     2.5544356179     3.5095236052
 He    -6.1709574886    -2.4898698925     5.8815837868
          6
Energy: 0.053273980460041725 Kcal/mole
 He     4.4092141816     2.4454069929    -1.3492204384
 He     2.7323578920     4.4866463250    -4.4753079066
 He     2.1888470421     6.0760348958    -6.1336950859
 He    -7.1553835856     6.3033545520     3.9905531139
 He     2.4818531473     0.4402229758    -0.8521275101
 He    -2.9598731560    -4.8025619916     3.2417659849
          6
Energy: -0.008521759902644399 Kcal/mole
 He    -2.4808543646     2.8303375078     6.0166541433
 He     2.5866512180     0.3690390989     1.6334119818
 He    -4.0319932742     3.7539291270    -1.9817249526
 He    -4.7476122429    -5.0335430983     2.1058306330
 He    -3.0540619521    -6.0705715357     6.5420506791
 He    -0.0582768575     3.4521259873     0.6996662153
          6
Energy: -0.0019263980625549625 Kcal/mole
 He    -1.8048669615     3.8871490156    -5.6967145375
 He    -2.7356954812     3.3895888235     6.3575949071
 He    -2.5416655101    -2.1369338172    -0.3213191980
 He    -6.6532370872     4.1134413220     3.5344883836
 He     6.7223828803     3.6150497770    -5.4863904254
 He     7.0153500475    -1.3495892979     6.9303714050
          6
Energy: -0.003893820517775896 Kcal/mole
 He    -6.3639964465     1.5725196591     7.1188928452
 He     1.3072839057    -3.1108843262    -3.2760176151
 He     0.4414222036    -4.5978986747     2.3439944999
 He     3.1722602606    -7.1487462867    -3.1908181724
 He    -3.2700302109     5.7629644687     1.7784546618
 He     2.4286447156     7.3663791073     6.3222266748
          6
Energy: -0.0022236381637619146 Kcal/mole
 He     0.6241644417    -0.5750180161    -3.0487757712
 He    -4.8758679952     3.5410626808     5.2637381449
 He     1.1293115499     4.1396495502    -5.4727240217
 He    -2.7007427042    -4.9845823572    -4.2648410564
 He    -0.9195274853     7.3896083986     0.8521713930
 He     2.5118384883     2.9268828344     7.4727456357
          6
Energy: 0.02244454295459989 Kcal/mole
 He    -0.3959094857     0.5789790326     4.4218821028
 He     0.0791029264    -2.3980373358     2.7817482873
 He     3.9434111202     3.7884909206     5.1206234946
 He     1.8903437160     5.5876721498    -0.8237602864
 He     2.3061561238    -6.0453898852    -5.8326734839
 He     5.1838647978     5.1681696800     3.5438339201
          6
Energy: -0.0029322489051603327 Kcal/mole
 He     2.4010942858     2.9400326388    -6.9415764581
 He    -5.5865084847    -2.3836291426     6.0927891543
 He    -4.2391094950    -4.1987733939     0.9357474426
 He     7.2711719567    -2.9874638370    -3.7201346365
 He     1.2269464271     0.8924224028    -2.6564966852
 He     1.6228101500    -2.8087934787     5.5068446249
          6
Energy: -0.12006609938938342 Kcal/mole
 He     4.0548879279     1.1682456774    -4.3623441992
 He    -4.6091987450    -2.4794638240     6.1401249648
 He    -5.0275234126    -0.5595955537     4.0511870506
 He     5.1750793401    -1.3314191746    -5.2061255981
 He     2.7213025779    -1.2873011173    -3.7295416954
 He    -2.3577421856    -1.3100096704     4.7927453708
