          4
Energy: -6.968365070091262E-4 Kcal/mole
 He    -7.3782123343     0.9061272684    -3.6249638179
 He     2.0541046067    -2.6033138507     0.6510945071
 He    -6.1525333091     0.1341642775     7.1101767640
 He     1.8557384947     2.3839366784    -2.1834507776
          4
Energy: -0.0191802953017944 Kcal/mole
 He    -1.8298220449     5.5590094354    -3.9647092775
 He     6.7386732967     4.0572044366    -3.4697900424
 He    -4.9925781022    -4.0345300149    -3.5886963648
 He    -4.2864541949    -6.4306204690    -1.9537106309
          4
Energy: -0.0014839037092731426 Kcal/mole
 He     1.7805912319    -5.1275477160     7.3997019512
 He    -3.1551876685     0.5007285423    -7.1659226513
 He     2.3618650197     5.0260702365    -0.5789184403
 He    -2.3240160757     2.1794910582    -1.9575424435
          4
Energy: -7.342171104282708E-5 Kcal/mole
 He     5.8382452085    -6.2094192215     6.5146256343
 He    -3.9120473640    -6.8704749239    -3.6807992302
 He     2.9398018926     1.9880816431    -0.7850671406
 He    -3.5562049967     6.2095650368    -5.0786861849
          4
Energy: -0.024184588452485938 Kcal/mole
 He     4.8388061851    -4.6471512677    -3.1521432030
 He     3.4095550882    -4.6543734307    -0.3411053106
 He    -2.2269913041    -1.5114470209     0.1996141975
 He    -2.5372528346    -5.1867564361    -0.5944815455
          4
Energy: -0.01148450670325837 Kcal/mole
 He     1.6226572771     3.7059775660     6.5597490524
 He    -3.0410671094    -6.5153386627    -2.2089695121
 He     4.0995452898    -7.1310684528    -6.9272266700
 He    -4.8687130675    -3.7345396878    -1.3915955065
          4
Energy: -0.015711357787504553 Kcal/mole
 He    -4.1939303266    -3.6581239526     1.1310911815
 He    -6.8333430997    -5.1077008265     5.6530618412
 He    -3.5783997988    -3.3828940951     4.7420180524
 He    -0.7867398874     6.7242142224     4.8990120649
          4
Energy: -8.824320655787898E-4 Kcal/mole
 He    -6.2325407631    -0.5594389293    -4.0338368075
 He    -1.0448535619     4.8961699081    -1.9866247743
 He    -2.8091070470    -1.2133950667     0.7064611073
 He     1.9350189388    -6.9354960610    -5.9051146385
          4
Energy: -0.09597797324128947 Kcal/mole
 He     0.5847083340     2.3177102199    -1.8811552548
 He     0.1712073707     3.7463890166    -4.1999888874
 He    -1.7307714234     1.9365817467    -3.0176907157
 He     0.3126136414     0.2662947179    -3.9023903171
          4
Energy: -0.1199809575978166 Kcal/mole
 He     0.6867597517     1.8869614898    -1.9065954177
 He     0.1517862126     3.5005941053    -4.2075568795
 He    -1.9986754232     2.1516068629    -2.8778167732
 He    -0.0691061401     0.6410447315    -4.3653578284
