          4
Energy: -0.016213133662890476 Kcal/mole
 He    -3.6682613293    -0.8944212886    -2.5184276073
 He     5.2158118320     1.8933409404     3.7836441231
 He    -1.8816442528     4.3878271443     6.0004834958
 He     7.2630233010    -0.5173456017     3.7131829754
          4
Energy: -6.537163289300039E-4 Kcal/mole
 He    -5.3693203884     7.3133589151     0.0645574493
 He    -6.5886430585    -5.9886330958    -0.6323417198
 He     5.1022854483     2.8578551624     1.4844099023
 He    -2.2836692422    -2.3461804288     0.7539778760
          4
Energy: -0.003712972797703114 Kcal/mole
 He     7.3700814675     3.9512383157    -4.9687980030
 He    -4.8237575694     4.9035203962     5.5930457461
 He    -0.5122873591    -4.5176970414     2.8919860890
 He     3.2126722390     4.7525605322    -4.9373773085
          4
Energy: -4.031504589330669E-4 Kcal/mole
 He    -6.9309228436    -6.3618852137     2.8803256785
 He    -7.1885701837    -0.3149875965     0.8968355815
 He     4.3664686469    -1.7136613500    -2.9117502041
 He     3.3170699313     5.6973632679    -7.0397742765
          4
Energy: -0.00739383504197504 Kcal/mole
 He     7.0623213834     0.4981586622    -0.5601970862
 He    -4.5010125630     3.1224569137     3.1818077048
 He     2.0749014345    -1.9298481444    -2.1783542981
 He    -3.3799151365     2.0435676834    -0.3034982186
          4
Energy: -0.003747340076086465 Kcal/mole
 He    -4.1632743800     0.9480066755     6.8429449039
 He    -0.6860351835     2.5518990119    -6.0280044356
 He    -7.1821419262     4.2132180222    -4.9320203899
 He    -7.4352274376     3.6758831216     6.5154389809
          4
Energy: -0.03889894458759567 Kcal/mole
 He     3.7273542862     3.9051803634    -1.4561317799
 He     1.4021065266     6.4761041678    -2.5994365136
 He    -1.5261611916    -0.0669424711    -2.3826190746
 He     1.7796229499     4.3254676587    -4.3248588502
          4
Energy: -0.001777421747179738 Kcal/mole
 He    -4.9005530843    -1.5859783215     4.3563649022
 He     3.7379613449     2.4557547447     0.8575234505
 He     2.6069436900    -1.9348067258    -6.8873194402
 He     5.0894756653    -1.4165147888     3.4496177605
          4
Energy: -0.09081506261465322 Kcal/mole
 He     2.3775867366    -1.1668851195    -0.3513828217
 He     3.2728027140     0.9450424241    -1.9439264149
 He     4.2158263310    -1.8388186043    -2.4307163303
 He     0.4981232163    -1.6699864461    -2.2950763910
          4
Energy: -0.11997213911792082 Kcal/mole
 He     2.2785027277    -1.2376712160    -0.2260254194
 He     3.1158770113     0.7296057464    -2.1400331839
 He     3.5191247269    -2.0699410121    -2.6799016902
 He     0.8827659484    -0.9605860195    -2.7132812088
