          4
Energy: -7.008772334771184E-4 Kcal/mole
 He     5.0370315993    -4.1560745335     3.0521194437
 He     6.8714124579     1.3739317749    -1.9840324239
 He     4.5063330740     5.8151293029     1.3506482842
 He    -1.0920202655    -0.0096594922    -3.9368808139
          4
Energy: -4.092929500799687E-4 Kcal/mole
 He    -4.6334047646    -4.0066307384    -2.6083691554
 He    -4.5516121285     6.7019138706     4.3077601347
 He     0.5817975611    -6.3264116449    -6.6534649570
 He     2.2517874425     0.4667937267    -4.5557555625
          4
Energy: -1.237858327442689E-4 Kcal/mole
 He    -2.6345913142     2.4164907264     0.9342798832
 He    -0.1282604235    -5.1276580742    -7.3397861011
 He     7.0534231526    -3.8990502586     7.0919725282
 He    -7.3524523486    -3.9896264054    -3.3515616455
          4
Energy: -4.945270522784108E-4 Kcal/mole
 He    -3.0683152732    -7.2493444653    -1.6746774203
 He     0.8076295094     4.5043744785     7.0345518105
 He     1.7846160082    -3.0889701587    -5.3002978085
 He     4.3654345442    -1.2389435708     0.3796008437
          4
Energy: -3.7821956053704625E-4 Kcal/mole
 He     3.3378332142    -6.4344398549    -5.6764939254
 He    -2.8915372859    -0.8683012697     5.5555360606
 He     6.1764270235    -2.5697081701     1.6339159149
 He     6.4601593655     2.9828765304     5.1048211703
          4
Energy: -6.486959226691467E-4 Kcal/mole
 He     0.4101024401     5.3592241994     7.1672878055
 He    -7.0254666815    -0.6555908585     2.6853531213
 He     2.5938075308    -3.1447113802     2.6818858468
 He     5.8933977527     6.9305759479     6.0263961559
          4
Energy: -0.018888205436838452 Kcal/mole
 He    -2.0971198262     3.7849528298    -7.0513374629
 He    -7.4362286825     2.3027115754     3.8485151673
 He    -6.6928334034     4.2021415864     1.6445742211
 He     6.8447778265    -6.2053572660    -3.2743080669
          4
Energy: -0.02008442897584917 Kcal/mole
 He     3.9403556679    -7.4000694924    -7.0062210410
 He     2.2764578334     4.4661629680     6.8976730085
 He     4.2181157711     3.5789743636     4.9752825190
 He    -2.6158575819    -2.6988686540    -6.9719427974
          4
Energy: -0.09521231654208939 Kcal/mole
 He    -1.8412898575     4.5186101459     3.5494978242
 He    -2.6829958335     1.6780573435     3.1911105709
 He    -0.0890217343     2.2799429585     2.4076937633
 He    -2.0267156439     0.9716385889     0.4095030942
          4
Energy: -0.11996137100138415 Kcal/mole
 He    -2.4003087955     4.4302685404     2.4767893118
 He    -2.7874919431     1.7150678235     3.3085595447
 He    -0.3696457455     2.4540572126     1.9692161247
 He    -2.8427890487     2.3986546171     0.5231580525
