          3
Energy: -0.013458349660269181 Kcal/mole
 Ne     4.3681055645    -0.3526395059     2.0909876261
 Ne    -4.3130546563     5.2499537388     0.8380560370
 Ne    -6.8565273272     7.0962717154    -2.4741020820
          3
Energy: -0.018610642846025406 Kcal/mole
 Ne     2.7472876924     2.6431429346    -6.0572050061
 Ne    -1.6944413899     4.4421867305    -2.2946210777
 Ne     0.8309072938     0.8778013836    -0.8671807049
          3
Energy: -1.9690594138172457E-4 Kcal/mole
 Ne     6.5634268443     2.8611959072     1.6350890287
 Ne    -5.8158882873    -3.3909929800     5.2378082735
 Ne    -5.8683464009     6.1826976082     6.0271261105
          3
Energy: -0.00455007685714252 Kcal/mole
 Ne     3.8573965663     0.8021225869    -6.1463123009
 Ne     1.6118302751    -0.0388091954     3.0969828082
 Ne     6.5705446487     1.4086658319     0.6161641348
          3
Energy: -0.03672191552670779 Kcal/mole
 Ne    -6.8601505215     6.4013040477     5.3707824470
 Ne    -3.4603151116    -7.0205632171     7.4717221509
 Ne    -4.7130541409    -3.4760578223     7.0445664572
          3
Energy: -0.0011988097999012825 Kcal/mole
 Ne    -0.1599835145    -1.6728168480     0.5294971204
 Ne     4.8405572582    -6.3815682956    -5.3362412974
 Ne    -4.9729151706     2.3917436530     3.8934765453
          3
Energy: -0.0025851154292932687 Kcal/mole
 Ne     6.6449909329     1.6965762620    -6.2492263908
 Ne    -4.1145014611     4.2024891314    -6.7238822783
 Ne     7.2510252506     0.5457758812    -0.3082372429
          3
Energy: -5.45292208716423E-5 Kcal/mole
 Ne     3.3093551633    -7.1104626617    -6.6387743652
 Ne    -6.9306302371    -0.4095720769    -2.1168071472
 Ne     1.6825517768     2.5752664208     7.4711388915
          3
Energy: -0.061485433553251936 Kcal/mole
 Ne    -1.1330077590     3.7231527854     3.5263849490
 Ne    -3.9967762039     2.9129454206     1.9926362172
 Ne    -5.2792705236     6.1846279760    -5.0374064373
          3
Energy: -0.20699894862619422 Kcal/mole
 Ne    -1.1537604522     2.0882630561     1.7331700242
 Ne    -3.2903050277     4.3046888071     1.2261416624
 Ne    -2.3716579884     2.4548003636    -1.1151434056
