          3
Energy: -0.002388679847387302 Kcal/mole
 Ne     0.6299086455     7.1890329677    -1.2342900952
 Ne     4.3659830395     7.2877390131    -6.1104756079
 Ne     3.7188311737    -2.1503081047     6.6334162710
          3
Energy: -0.0017130868144949788 Kcal/mole
 Ne     6.6595300331    -4.2371666647    -7.2721821056
 Ne    -0.0480709053    -0.0766762360    -0.3343387669
 Ne    -3.2223465915    -4.2760227426    -4.3400696169
          3
Energy: -2.1173774738919888E-4 Kcal/mole
 Ne     6.2141203240     2.1315431703    -5.3257012186
 Ne     3.5479834190    -5.9240541206    -1.1554777473
 Ne    -3.1047794738     5.8483011629     3.9565400628
          3
Energy: -0.055280079119352156 Kcal/mole
 Ne    -4.5568212539    -5.1110565163     1.1980566252
 Ne    -6.0391472766    -5.3780865063    -1.8986395836
 Ne     0.9723599468     7.3877222758    -3.9901898208
          3
Energy: -0.10142712334500209 Kcal/mole
 Ne    -1.7922885135     6.2633730169     2.8244499320
 Ne     2.1786475305     6.9949868056     3.0189971796
 Ne    -1.0042706483     3.8038903107     1.2592296609
          3
Energy: -0.002592548869336875 Kcal/mole
 Ne    -4.2527352171     0.1800358727    -6.0564170423
 Ne     0.4515318070     1.1900507085    -2.0696426145
 Ne     4.1552979752    -0.8774332282     4.8311745410
          3
Energy: -0.04635768227443654 Kcal/mole
 Ne     0.9302266774    -1.4041163100    -3.3547165321
 Ne    -2.1046258935    -1.8891717008     5.5976529480
 Ne    -1.1173934961     1.4328946513     4.6083212694
          3
Energy: -7.756886869300538E-4 Kcal/mole
 Ne    -4.3166238694     5.7832394685    -3.4092789512
 Ne     2.1257452314     0.1129221423    -1.1704357608
 Ne    -2.3642851726    -6.5121576427    -1.4226848919
          3
Energy: -0.07529754099486224 Kcal/mole
 Ne    -2.9877131807    -2.2373737226    -4.0017517817
 Ne    -6.0557962033     0.5090172928    -3.4902834337
 Ne    -3.0109444797    -3.1220212822    -7.4167149744
          3
Energy: -0.20699759907210996 Kcal/mole
 Ne    -2.5818873730    -1.5537648118    -4.3653087627
 Ne    -5.6284471979    -0.9522659666    -4.0592388926
 Ne    -4.6174038647    -2.7569828776    -6.3988547691
