          3
Energy: -0.0013607879114600813 Kcal/mole
 Ne    -0.6634169353     4.7046035080    -6.4451467661
 Ne     6.8610282940     4.6204314352     2.7870148848
 Ne    -6.3186632318     2.5347428078    -3.3956528350
          3
Energy: -3.3720636508990514E-4 Kcal/mole
 Ne    -1.5524027927    -4.3315062649     3.1485847564
 Ne     1.8801345323     4.0683589522    -1.1141300359
 Ne    -3.8908038228    -6.2475641135    -5.7792649818
          3
Energy: -1.972681325520337E-4 Kcal/mole
 Ne     0.7626170409     2.5981817951     5.3337160536
 Ne    -2.6189273478     5.9654054122    -3.0702316959
 Ne     7.0717127729    -6.3608371933    -0.7377955345
          3
Energy: -2.4267067419841303E-4 Kcal/mole
 Ne     5.0373710200    -3.8339125816    -4.5355657625
 Ne     4.0149915333    -3.9197464290     7.2685119198
 Ne    -2.6955085280     0.7289125432     0.5312697500
          3
Energy: -0.001938515893567401 Kcal/mole
 Ne    -2.2910706493    -5.3790246749     1.7551722837
 Ne    -2.7161993765    -1.1204748909    -4.0407874678
 Ne     3.2403758249    -5.7502932328     6.1730603056
          3
Energy: -0.03622953958254013 Kcal/mole
 Ne    -2.8438820737     4.0164620686     0.5555294293
 Ne    -3.9167506076     4.0848189894     6.3759641759
 Ne    -1.0301567723     1.4044690061     3.0170880453
          3
Energy: -0.0016707073180628727 Kcal/mole
 Ne    -2.0679487539     4.1574510022     0.8668389127
 Ne    -1.4025499000    -2.1963706282     6.1470549417
 Ne     3.9836383704     3.5914460649    -2.2976007829
          3
Energy: -0.03552003224978621 Kcal/mole
 Ne     3.0364403057    -0.5412754372     1.4970443957
 Ne     6.6116683467    -1.0414966419     0.2822555813
 Ne    -7.2924652577     1.5439082057     2.2172425004
          3
Energy: -0.06182313141719347 Kcal/mole
 Ne    -1.6830527073     5.8809266887     2.1464112000
 Ne    -6.4685896316    -3.5667827216    -2.7187368705
 Ne    -4.3515579458     5.0524838990     3.1743971601
          3
Energy: -0.20699888965379887 Kcal/mole
 Ne    -1.9852628779     5.5482762735     1.1695503766
 Ne    -3.7960644661     3.4943494772    -0.3238854771
 Ne    -4.3622488066     4.1906896282     2.6660487806
