          28
Energy: -112.48123536126666 Kcal/mole
 H     -0.3666672590     0.3740749258    -6.4899698927
 F      0.3205923979     0.3675329943    -7.0970286765
 H      0.8103819515    -2.3748031286    -5.3180355657
 F      0.7968874076    -1.6702202274    -4.7312904484
 H      5.9567007165     1.5777319699    -5.2517314835
 F      6.6390218186     1.2778613022    -4.7174988598
 H      1.8051118564     0.3644653074    -6.4180361920
 F      2.6046821283     0.3600156931    -5.9690856589
 H      4.2870202989    -3.5132721874    -6.0269937201
 F      3.6604861011    -4.1798895671    -6.0899633006
 H      3.9087031868     1.3860301924    -6.1972929344
 F      4.6560026615     1.9159611933    -6.2373632406
 H      2.2714910260    -1.5841210509    -3.9908839620
 F      3.1128770466    -1.5696823170    -3.6265351082
 H      6.4088803582    -0.2094664606    -4.0166886901
 F      6.2111560648    -1.0765541300    -3.7931868391
 H      2.0358233513    -3.9097536667    -6.3018429072
 F      1.1608594311    -3.6365751329    -6.3283122678
 H      3.7583247825    -0.0726859195    -3.3131762320
 F      3.9646787067     0.8165530747    -3.2262218234
 H     -1.1059409959     0.4634936543    -4.4039687192
 F     -1.4535074968     0.4702194875    -5.2525211870
 H      5.6721188581    -1.8896032051    -5.1273998593
 F      5.3399431314    -2.2194002710    -5.9159315212
 H      2.6165499623     1.7444249857    -3.1105372502
 F      1.7921457646     2.1457756769    -3.0977176760
 H      0.4193624221     1.2255848977    -2.9527447392
 F     -0.2814049137     0.6343953387    -2.9703244565
