          28
Energy: -111.90591755832132 Kcal/mole
 H      1.7782458869    -1.4024343486     0.0032761371
 F      1.4181958041    -2.0737479710    -0.5072049676
 H      2.3247878662     2.5923087769     1.4212668358
 F      1.6682519329     2.5868117761     2.0614381810
 H      4.9176136446    -5.4890416779    -2.3986285597
 F      5.7983479165    -5.2875195364    -2.2418326131
 H      2.2019116599    -2.6870670967    -1.8266461905
 F      2.6058945279    -3.0720668504    -2.5542876077
 H      4.9626167486    -0.0530366427    -0.0374305128
 F      5.2493598482     0.7712521993     0.2440216142
 H      2.9401334897    -4.6979183695    -2.6434277215
 F      3.2865423420    -5.5469431126    -2.6365798987
 H      0.9782922813     4.0170790569     2.5721780463
 F      0.5559273152     4.7032442063     3.0099841941
 H      6.1798937262    -3.6795167216    -2.1031519308
 F      6.2645259333    -2.7721841952    -2.0008089968
 H      4.1538007864     2.0090568086     0.2913277696
 F      3.5373118451     2.6871917253     0.3223667767
 H     -0.0119656905     4.0662264244     4.4263631817
 F     -0.2130125249     3.5371802182     5.1478749849
 H      1.9343723453    -0.1448006200     1.8023343694
 F      2.3337208741    -0.1667611627     0.9771510642
 H      5.1132426010    -1.9492690926    -1.1546282318
 F      4.4812503761    -1.5149922403    -0.6517580266
 H      0.8028969933     2.2448244755     5.2231554974
 F      1.4044848280     1.5587755039     5.1319530535
 H      1.2930667026     0.3922622841     3.9521456572
 F      1.2178934312    -0.2499857936     3.3019492362
