          28
Energy: -111.95388375550914 Kcal/mole
 H      2.4996123381    -0.6898631623     0.1496036762
 F      2.1681235378    -1.1565542401    -0.5667786331
 H      3.7094723812     2.6300203224     2.6093020240
 F      2.9287056811     2.7563039346     3.0733546172
 H      4.9198539796    -5.3761410253    -1.9763705880
 F      5.7154899463    -5.4846888488    -1.5335729158
 H      3.1700346608    -1.8934602923    -1.6539549627
 F      3.6909640088    -2.3323885868    -2.2678471085
 H      5.7155680634    -0.5872434856     1.4694211373
 F      6.1002013736     0.0493760476     2.0057622476
 H      3.4850901215    -3.9448180399    -2.6110644634
 F      3.5230593655    -4.8581391695    -2.6838095718
 H      2.7055437909     4.1106797925     4.0100001583
 F      2.4772467224     4.7474019830     4.6291562781
 H      6.4446838117    -4.0771077329    -1.0551482597
 F      6.7272670488    -3.2430104039    -0.7995756479
 H      5.5123414946     1.5911411744     1.9159694482
 F      5.1616555513     2.4376242690     1.8788919659
 H      1.3672016456     4.0703650475     5.6589442799
 F      0.7933759225     3.5262337415     6.1232008483
 H      2.2775523097     0.3014029408     2.0550513467
 F      2.9763214224     0.2018319976     1.4696486183
 H      5.6727142772    -2.2331647038    -0.0426214983
 F      5.0788233045    -1.7035667307     0.4131289811
 H      1.0393586516     1.9299258822     5.7917573091
 F      1.2526223204     1.0855164207     5.5047376777
 H      1.0574358906     0.5792481013     3.9350893936
 F      0.9676489572     0.3141343188     3.0618528913
