          28
Energy: -111.89541488924621 Kcal/mole
 H      2.0807870661    -0.4878161175    -0.2444962019
 F      1.7321243896    -0.9228710987    -0.9725418745
 H      3.3172984586     2.6033025468     2.6057685400
 F      2.4937632465     2.7093813071     2.9949035437
 H      4.8240024631    -5.1794504623    -2.1326123620
 F      5.7070811108    -5.1753916926    -1.8855402505
 H      2.6425190588    -1.7971963265    -2.0431833133
 F      3.1081490128    -2.3120482984    -2.6423537340
 H      5.2470080072    -0.5587266797     1.1576233684
 F      5.6208964373    -0.0320080774     1.8085181032
 H      3.1026500730    -3.9772205442    -2.6105395479
 F      3.2517974746    -4.8773852422    -2.5191745160
 H      2.1297355945     4.0198257788     3.9495399063
 F      1.8321703744     4.6280603891     4.5679205322
 H      6.3207923198    -3.6903995236    -1.4938137764
 F      6.5239734612    -2.8268414389    -1.2617063482
 H      5.1301156400     1.5407164274     1.9233559045
 F      4.8339534644     2.4054426946     1.9970135490
 H      0.7610912646     3.8851984606     5.6007464895
 F      0.2217414742     3.3026448117     6.0596822692
 H      1.8961102721     0.3520374681     1.7445545423
 F      2.5790490105     0.3198340459     1.1334517529
 H      5.3484546637    -1.9422709517    -0.5275662936
 F      4.6865673024    -1.4923997625    -0.0798945008
 H      0.5550527585     1.7460587969     5.6178088105
 F      0.8217763036     0.9415156704     5.2678689470
 H      0.6784909662     0.4770451047     3.6674781112
 F      0.6099205641     0.2323991580     2.7863791039
