          28
Energy: -111.95308435308769 Kcal/mole
 H      2.4829919573    -0.6105718719     0.0587253168
 F      2.1475032590    -1.0656093232    -0.6632700095
 H      3.6909985158     2.6308186719     2.6366976921
 F      2.8823920740     2.7635427757     3.0483151535
 H      4.9165804025    -5.3575205392    -1.8896666171
 F      5.7135938642    -5.4558098954    -1.4469502922
 H      3.1417283620    -1.8542213469    -1.7268883208
 F      3.6558069127    -2.3214948466    -2.3254430135
 H      5.6783762200    -0.5761583469     1.4522276324
 F      6.0619503833     0.0235268441     2.0302739393
 H      3.4726636416    -3.9502109921    -2.5816599249
 F      3.5184654611    -4.8656187786    -2.6102916847
 H      2.6698545484     4.1213974209     3.9843261614
 F      2.4539628970     4.7591909708     4.6068204847
 H      6.4520905450    -4.0472146735    -1.0166501798
 F      6.7437314597    -3.2094467699    -0.7843152566
 H      5.5248145408     1.5768565638     2.0118613421
 F      5.1984569612     2.4338139886     2.0137854596
 H      1.3535786744     4.0778055359     5.6322956709
 F      0.7838490850     3.5262995662     6.0928804735
 H      2.2872749689     0.3115505108     2.0033595625
 F      2.9723429836     0.2465494462     1.3972690768
 H      5.6746972635    -2.1773025942    -0.0895919702
 F      5.0665924367    -1.6376442439     0.3345146019
 H      1.0594020283     1.9289800594     5.7626963886
 F      1.2895458233     1.0884023507     5.4774737575
 H      1.0968208067     0.5465934827     3.9168563733
 F      1.0069286081     0.2586814895     3.0508800014
