          28
Energy: -111.93961962862478 Kcal/mole
 H      2.4584850529    -0.6623428243     0.0325410094
 F      2.1421789648    -1.1641327356    -0.6667774757
 H      3.5107939000     2.7069112093     2.5262749477
 F      2.6766432849     2.8395364435     2.8833355850
 H      5.0438060435    -5.3728315851    -1.9849174007
 F      5.8392694841    -5.4531234977    -1.5358292987
 H      3.1686143424    -1.9283786643    -1.7126581547
 F      3.7030457355    -2.3795550521    -2.3057112325
 H      5.5875030740    -0.5289221305     1.5225949832
 F      5.9248621543     0.0811532511     2.1183179722
 H      3.5573399253    -4.0055705028    -2.6351387369
 F      3.6319198655    -4.9171268985    -2.7014091679
 H      2.3760991731     4.1911981747     3.8106069918
 F      2.1233489818     4.8192814738     4.4290871533
 H      6.5001787951    -4.0487354580    -0.9570470865
 F      6.7578421244    -3.2250843580    -0.6470511602
 H      5.3808710531     1.6421570599     2.0402702920
 F      5.0543863848     2.4985474305     2.0103989910
 H      1.0750593404     4.0991940301     5.4962260525
 F      0.5528788853     3.5223921053     5.9815260750
 H      2.2234947034     0.3259459614     1.9436728749
 F      2.9055844182     0.2747041253     1.3329217838
 H      5.6633043136    -2.1661107429    -0.0051135555
 F      5.0464192856    -1.6094976163     0.3828602704
 H      1.0027324317     1.9622656317     5.6911740920
 F      1.3272131407     1.1498715945     5.4161882781
 H      1.0889052142     0.5548393527     3.8777486823
 F      0.9749638322     0.2417698143     3.0234104439
