          28
Energy: 4.897949167474906 Kcal/mole
 H      2.2706968268    -4.2015651133    -4.8829006543
 F      1.8257222250    -3.3997630157    -4.8829006543
 H     -0.3682935007    -1.6106068476    -1.0540128528
 F      0.0956050815    -1.6106068476    -1.8450167121
 H     -4.6726700102    -0.1850029317     1.2600726838
 F     -3.7556700102    -0.1850029317     1.2600726838
 H     -1.4853025863     2.3447321215    -0.6427169205
 F     -0.6113066130     2.6222569647    -0.6427169205
 H      5.3788058576     0.9670136313    -3.0587316874
 F      5.0284468919     0.9670136313    -2.2113016931
 H      3.1397479154     0.9337624778    -4.5772524991
 F      2.5901971746     0.1996759820    -4.5772524991
 H     -2.5191194856    -0.7976584619    -3.8037168037
 F     -2.9751716104    -1.5932120172    -3.8037168037
 H      4.6901840218    -4.8026598083    -0.8193269942
 F      4.1146447635    -4.0887665655    -0.8193269942
 H      2.5506384246    -0.1406162632     2.0436629933
 F      3.1940106549    -0.1406162632     1.3902403327
 H     -4.2537640805     4.8940312905    -5.4179444680
 F     -3.6057601151     4.8940312905    -4.7691148595
 H     -1.4576674005    -4.0165408420     1.6068238748
 F     -0.5406674005    -4.0165408420     1.6068238748
 H      2.9126275992     3.9396786134    -2.7139484545
 F      3.8296275992     3.9396786134    -2.7139484545
 H     -0.7458769940     5.4267589851     3.2065209797
 F     -0.1248722715     4.7520426488     3.2065209797
 H     -2.8352251589     2.4265452387     4.7744348355
 F     -1.9182251589     2.4265452387     4.7744348355
