          28
Energy: -111.95913568584479 Kcal/mole
 H      2.4763988824    -0.6939318537     0.1451149147
 F      2.1435435547    -1.1717702155    -0.5632401028
 H      3.7067716662     2.6357836881     2.6077377150
 F      2.9206399930     2.7620160518     3.0626568097
 H      4.9102896174    -5.3740227244    -1.9344656930
 F      5.7058674823    -5.4825339329    -1.4915546652
 H      3.1486168821    -1.8953442140    -1.6622909058
 F      3.6662469300    -2.3303394116    -2.2817481776
 H      5.6934917883    -0.5871674064     1.4644366270
 F      6.0722155599     0.0391514485     2.0168694255
 H      3.4736989702    -3.9491248910    -2.5933486005
 F      3.5144272461    -4.8635265702    -2.6490242376
 H      2.6910420626     4.1213726871     3.9963061411
 F      2.4646161236     4.7605875408     4.6135780949
 H      6.4490606817    -4.0864663014    -1.0235201225
 F      6.7434078126    -3.2560915967    -0.7691058613
 H      5.5092447158     1.5897982866     1.9289198386
 F      5.1697510686     2.4409375640     1.8943511532
 H      1.3787682948     4.0883015191     5.6673142072
 F      0.8175657079     3.5423897237     6.1447248985
 H      2.2703280638     0.3127635442     2.0452723370
 F      2.9629268134     0.2126550307     1.4526727610
 H      5.6781480594    -2.2251644539    -0.0489931918
 F      5.0749744732    -1.6875750463     0.3846751766
 H      1.0780470970     1.9505201985     5.7994367720
 F      1.2991068589     1.1119160009     5.5015029179
 H      1.0767054132     0.5950161456     3.9363806275
 F      0.9720670281     0.3231676038     3.0668760682
