          28
Energy: -111.8476405844673 Kcal/mole
 H      2.0592780853    -0.1357058136    -1.6189774991
 F      1.7030093433    -0.3791833666    -2.4281006447
 H      3.5138307769     2.2915447512     1.7017852386
 F      2.7871701959     2.2494432922     2.2595314776
 H      4.0411662615    -4.4753548637    -4.7501672390
 F      4.7790643884    -4.8751815999    -4.3806622521
 H      2.6608627149    -0.8321298435    -3.6958331512
 F      3.1516858459    -1.1180745374    -4.4157062554
 H      5.3113183090    -0.5032391949    -0.5117380689
 F      5.7720399661     0.0411538600     0.0646825730
 H      2.8589291606    -2.6349317239    -5.0094811318
 F      2.7839762188    -3.5193164774    -5.2399907070
 H      2.7549318571     2.9975557107     3.7443263474
 F      2.5910712982     3.3195516696     4.5871533282
 H      5.6029722018    -3.9365400757    -3.3069601104
 F      5.9624536891    -3.3340008041    -2.7165293468
 H      5.1908200437     1.5345293576     0.5135528787
 F      4.8647315778     2.3460441260     0.7892322088
 H      1.1486489297     2.7115891464     5.1372818642
 F      0.3358500487     2.3040915425     5.2564149074
 H      2.0240040320     0.2095602688     0.5481616593
 F      2.6320468882     0.3525476800    -0.1232007506
 H      5.0639029255    -2.1411686014    -2.0128239652
 F      4.5455283224    -1.4941451253    -1.6209854881
 H     -0.3071574120     1.7940336817     3.8280654418
 F     -0.5374491983     1.5336808236     2.9794954197
 H      0.3393174388     0.4378311244     2.1151078610
 F      0.8455961247    -0.1728444664     1.6550576299
