          28
Energy: -111.96908475758259 Kcal/mole
 H      2.4839533261    -0.6694419719     0.1266154014
 F      2.1483699818    -1.1298870391    -0.5918991490
 H      3.6848308031     2.6379454425     2.5986496017
 F      2.8814327257     2.7699320879     3.0205738302
 H      4.9056522482    -5.3753827655    -1.9206139466
 F      5.7098943832    -5.4874626817    -1.4945603342
 H      3.1449483185    -1.8706932724    -1.6873468062
 F      3.6586017797    -2.3162528617    -2.3025912894
 H      5.6946580464    -0.5864869476     1.4652979168
 F      6.0761454528     0.0312237947     2.0254673532
 H      3.4626221768    -3.9409505843    -2.5703206429
 F      3.4973337663    -4.8566063162    -2.6057986101
 H      2.5868934158     4.1519549868     3.9015764186
 F      2.3253649515     4.8007612204     4.4944864739
 H      6.4488288650    -4.0874352865    -1.0236326683
 F      6.7392374897    -3.2556501109    -0.7692997123
 H      5.5119369040     1.5811773515     1.9663175821
 F      5.1743421424     2.4334474274     1.9427698735
 H      1.2560048687     4.1141856742     5.5523222161
 F      0.7145623583     3.5579415701     6.0405040518
 H      2.2985467355     0.2782078725     2.0664609339
 F      2.9775058273     0.2034254429     1.4546512086
 H      5.6775407770    -2.2184766703    -0.0564984995
 F      5.0751485351    -1.6765572224     0.3728450678
 H      1.0860842540     1.9718691640     5.7811314854
 F      1.3658975035     1.1365097200     5.5266356214
 H      1.1428725163     0.5511713209     3.9894168073
 F      1.0333197040     0.2457736683     3.1317341998
