          6
Energy: -0.013171354039637055 Kcal/mole
 Xe    13.3985540024    -4.2528266012    17.1039181176
 Xe    -7.1598014540    10.7855356978    16.7261657331
 Xe    13.6954442110    12.0178782064    16.9074999387
 Xe    -1.9572316676    17.4641118705    13.6835692333
 Xe    13.4656755478   -11.4437304022    -9.2945244460
 Xe    -5.3241961115    -3.7778006833     6.7672122224
