          6
Energy: -3.0309430175205834 Kcal/mole
 Xe     5.1105717785   -12.9920750855    -6.7378861736
 Xe     4.0486939807   -11.0042430290   -10.5412238312
 Xe     0.8777493236   -12.1890143127    -7.7086724841
 Xe    17.8629964570    23.0188768958    18.5689052801
 Xe    14.8311596358    24.5659335439    15.7539603972
 Xe     3.5968010538    -8.8491159724    -6.7107405082
