          6
Energy: -0.30265603161310173 Kcal/mole
 Xe     9.0989395691    15.1449554342    17.1669520189
 Xe   -13.8372526025    -1.8050057785   -17.1842178085
 Xe    16.2164325016     2.7181276969     7.1948691058
 Xe    -3.6629115849   -20.8397286752    -6.4408402588
 Xe    17.4975779504     0.5333118181    11.6196709259
 Xe    15.2974346064    20.6281237641    14.0160682201
          6
Energy: -0.433217077741602 Kcal/mole
 Xe    -1.1467855827    -5.6048627819     4.0314075920
 Xe    13.3627811154   -22.3543711441     2.5620710904
 Xe   -20.1038379512    25.0277273677    21.3143888385
 Xe   -18.2933262763    -9.6634097741     4.7942757374
 Xe    15.6396308278   -25.8845046327     1.2386594885
 Xe     2.3486858926    20.7569098572    23.0807903659
          6
Energy: -0.33249343477433957 Kcal/mole
 Xe    22.6224532317     4.2880179373     9.2094867097
 Xe    22.7318305205     4.0357492683     2.4289170318
 Xe    22.4804886099    -9.2957949020   -12.4303499600
 Xe   -23.4575186956     8.4926569180    23.5691480866
 Xe   -17.7352280898   -18.0668940415   -16.1095454945
 Xe   -23.4954694983    13.6456908318    24.0894120619
          6
Energy: -4.7322361453641014E-4 Kcal/mole
 Xe    -3.2759611943     5.8414601415    24.6666514280
 Xe     4.7026439557    18.7774201984    18.0159964275
 Xe    21.7366510544   -18.6547618095   -17.9766065116
 Xe   -21.8511935957   -17.2434991402    24.0548632036
 Xe   -20.4358570840     1.2107571813    -5.1059685980
 Xe   -23.3443675678     7.0386067941    21.7802806825
          6
Energy: -1.5151026964434986 Kcal/mole
 Xe   -10.9240451038     6.6891341725    10.0722219146
 Xe    -9.8204647343     9.8168590923    12.5185804450
 Xe    15.6036438999   -11.9565473775    -4.5647467344
 Xe    -2.1432446623   -24.0571461909     0.5481746971
 Xe    -4.6386854889   -23.3264426757    -3.4546022225
 Xe    -6.4143022476     7.5120245908    10.4370935981
          6
Energy: -2.837626669626451 Kcal/mole
 Xe   -12.7437652298    11.4018970008    13.7891222310
 Xe    -9.5838044377    14.4036773306    14.6870954548
 Xe   -10.8191930733    13.0838070866    10.4735535482
 Xe    -6.5203326551   -22.3629078441     4.7256913042
 Xe    -6.4290984185   -19.3428526014     8.0719203423
 Xe   -13.8999776741    15.5021387766    12.5249172128
          6
Energy: -2.8680800812891305 Kcal/mole
 Xe   -11.9867558848     9.4152581578    13.5039981806
 Xe   -14.8828105665    10.6333066535    16.7824533393
 Xe   -16.0129153196    10.1098339798    12.2658990572
 Xe    -6.6949223019    -1.6777584570     7.1992888716
 Xe    -3.4720486531     0.9530107799     6.1203547091
 Xe   -15.3037165687     6.8819731005    14.9398310595
          6
Energy: -2.963208494080678 Kcal/mole
 Xe    -9.5587177245    15.1469585780    14.4000025927
 Xe   -13.9873720372    14.7129292565    14.9672868487
 Xe   -11.3886933956    10.9226027850    14.6404340261
 Xe    -1.6913138032     6.4131786234    -2.1272647612
 Xe    -4.1656144169     2.6431618512    -1.5701203977
 Xe   -11.0564864638    13.5773318106    18.2230765589
          6
Energy: -2.9133881611359427 Kcal/mole
 Xe   -10.1379007200    10.9417679341    18.0049329980
 Xe   -14.1359039777    10.0395351811    19.8819131440
 Xe   -13.6479985082    13.2794922896    17.0785211137
 Xe    -0.5112344327     6.8494414302    -7.0051386204
 Xe     2.9371983827     7.5055190354   -10.1458227495
 Xe   -13.5565440276     9.2510737683    15.7171674281
          6
Energy: -3.030645015956488 Kcal/mole
 Xe   -10.2153897861    11.0500425765    18.1249390712
 Xe   -14.1034696242    10.0559329797    19.9904549655
 Xe   -13.8462795435    13.2836546989    17.0023260303
 Xe     0.7256347721     7.0487431736    -6.1301654438
 Xe     3.5354504622     7.6526691232    -9.4838307202
 Xe   -13.3801196752     9.0911842678    15.7317405793
