          26
Energy: -103.71169161817365 Kcal/mole
 H      1.6597358814     2.6940060292     0.1762342401
 F      1.1728557899     2.7050570698    -0.6007565263
 H     -3.0675452958    -3.5870676954     5.7394560085
 F     -2.6418847256    -3.0345884961     5.1440831730
 H     -2.3889995029    -4.9164468507     2.6426611494
 F     -2.3005068065    -5.7405766363     3.0349214446
 H      0.1028647656     1.4531472865    -0.7631767843
 F     -0.4761517927     0.7431457275    -0.7241049105
 H     -1.8192609386    -1.7075812917     5.7307406754
 F     -1.3283313439    -1.0239649562     6.0948091291
 H     -1.7576170248    -0.5634785945     2.3884177093
 F     -1.5995463716    -1.2434449884     2.9830170464
 H     -3.9469682837    -5.4396612852     6.0662147839
 F     -3.8120825739    -4.7305902035     6.6318233468
 H     -1.5784916555     0.6070229106     0.5060903163
 F     -2.1517543302     0.5228374512     1.2168446439
 H     -3.4056839078    -6.3134215979     4.1284421129
 F     -3.9984936975    -6.5073269622     4.8006520971
 H      1.7849870016     1.8213183035     2.0986703323
 F      2.3109384976     2.4335786803     1.6634677877
 H      0.7130123598     0.2684745806     3.4149196036
 F      0.6513443676     0.7046774428     2.6106726753
 H     -2.2447350417    -2.6601914730     2.3930000022
 F     -2.5775471694    -3.4102730164     1.9837289844
 H      0.0814698331    -0.6385655277     5.3392147358
 F      0.8571795586    -0.4330237215     4.8954625668
