          26
Energy: -103.75794312396076 Kcal/mole
 H      1.5442443299     2.7542687532     0.2915364178
 F      1.0121183504     2.8647880339    -0.4470544234
 H     -3.0894157604    -3.6916391799     5.8671592043
 F     -2.6449020037    -3.1617827498     5.2650390472
 H     -2.5038137111    -5.0490604989     2.8356029007
 F     -2.4046292877    -5.8637568303     3.2446522105
 H     -0.0280035385     1.5998774901    -0.6561959133
 F     -0.5720464148     0.8617951837    -0.6443275629
 H     -1.8266385862    -1.8207303937     5.8211160481
 F     -1.3384172692    -1.1208362915     6.1567902819
 H     -1.8183510702    -0.7193390470     2.4255537353
 F     -1.6541344955    -1.3899113225     3.0290889372
 H     -4.0382439136    -5.5070438121     6.2281625778
 F     -3.8774739149    -4.7889024760     6.7752594877
 H     -1.6617412653     0.5511627954     0.5680221720
 F     -2.2402539544     0.3750480256     1.2573665390
 H     -3.5266494970    -6.4254428504     4.3275314528
 F     -4.1271297207    -6.6034236800     4.9973339052
 H      1.7359117785     1.6520630130     2.0999675855
 F      2.2658645685     2.2879206906     1.7053487134
 H      0.6494580060     0.1234470007     3.3786659294
 F      0.5907883343     0.5447095997     2.5662715102
 H     -2.3531516568    -2.8073146839     2.5072627197
 F     -2.7199542425    -3.5625727353     2.1385756723
 H      0.0412878414    -0.7387361310     5.3453807859
 F      0.8032915228    -0.5389389681     4.8759976981
