          26
Energy: -103.77593049508599 Kcal/mole
 H      1.3332259063     3.0471984207     0.4848105222
 F      0.7831057663     3.1702321562    -0.2384595045
 H     -3.1822209900    -3.6392871124     5.8205637298
 F     -2.6835203844    -3.1468083114     5.2292504992
 H     -2.4651120984    -5.1287146249     2.8771411490
 F     -2.4136142756    -5.9274333929     3.3246736104
 H     -0.1310010566     1.8307623892    -0.5419254385
 F     -0.6009889637     1.0443982076    -0.5823202514
 H     -1.8402623758    -1.8138172945     5.7687738230
 F     -1.3442168417    -1.1156527071     6.0964841175
 H     -1.7649941894    -0.7972829449     2.3878985380
 F     -1.5674273661    -1.4733614858     2.9750732623
 H     -4.2115664195    -5.4153411117     6.1855839140
 F     -4.0649739303    -4.6796275486     6.7129596769
 H     -1.6707017996     0.5739382138     0.5959933563
 F     -2.2427186247     0.3172509003     1.2651699957
 H     -3.6116543435    -6.4224830296     4.3566850610
 F     -4.2550061980    -6.5610778287     4.9952607205
 H      1.6440925049     1.8176007867     2.1889556820
 F      2.1107870148     2.5299594948     1.8489111180
 H      0.6697474353     0.1341533512     3.3638264339
 F      0.5996996434     0.5796038499     2.5653552948
 H     -2.2417414006    -2.9050385340     2.4620469958
 F     -2.5994648256    -3.6705504664     2.1057964765
 H      0.0571364871    -0.7560203296     5.3029379185
 F      0.8266632176    -0.5587658072     4.8448895975
