          26
Energy: -103.74502885598545 Kcal/mole
 H      1.5736055424     2.7155339420     0.2897149515
 F      1.0239097194     2.8261748870    -0.4358758999
 H     -3.1150576873    -3.6689581487     5.8484494627
 F     -2.6987927362    -3.1092460867     5.2531891011
 H     -2.4282202579    -5.0593730612     2.8242652715
 F     -2.3079074093    -5.8632763426     3.2487100059
 H     -0.0618251424     1.5974490285    -0.6490365963
 F     -0.6349144942     0.8815921044    -0.6464951224
 H     -1.8601283259    -1.7702699881     5.8054388273
 F     -1.3591365092    -1.0770691903     6.1361484485
 H     -1.7839443286    -0.7251238253     2.4326591182
 F     -1.6068134649    -1.4147328739     3.0105458002
 H     -3.9875868534    -5.5363914944     6.1963509006
 F     -3.8432478578    -4.8173173939     6.7467940788
 H     -1.6713202797     0.5840562856     0.6067709027
 F     -2.2188923147     0.4137311370     1.3223428489
 H     -3.4436524380    -6.4478345115     4.3039398944
 F     -4.0557172337    -6.6342982475     4.9608241772
 H      1.8171683539     1.6283404576     2.0953894703
 F      2.3366052239     2.2629545253     1.6850977166
 H      0.7144339328     0.0925316688     3.3895768968
 F      0.6728463719     0.5209283952     2.5798635404
 H     -2.3118771526    -2.8328407303     2.4809307497
 F     -2.6770232494    -3.5898640936     2.1142252065
 H      0.0460583080    -0.7536736557     5.3378471559
 F      0.8224172450    -0.5851064843     4.8798723644
