          26
Energy: -103.51339895316144 Kcal/mole
 H     -0.8560152267     3.7593351003     2.4413661461
 F     -1.6024934991     4.1939927617     2.7491516333
 H      0.1603613226     1.1941932130     4.0369526585
 F     -0.2033229325     1.8543004765     4.5593329446
 H     -0.2773371939     2.0638619640    -0.6151190577
 F      0.5323551741     1.7772324036    -0.9362588469
 H     -2.9740579660     3.3139153606     2.9986096300
 F     -3.7628457012     2.8482870678     3.0421205694
 H      0.7913010903     2.6562965143     5.6292416540
 F      1.4129753535     3.1268785729     6.1119036854
 H     -4.5991782901     3.1593589100    -0.3130918531
 F     -4.0099167141     3.0262548197    -1.0029781453
 H      1.3230721038     0.2487375178     2.2823523589
 F      0.9248199722     0.0632918000     3.0872710662
 H     -4.8941884728     3.1650102491     1.8738930979
 F     -5.4004428780     3.3461682714     1.1310759952
 H      1.5229790437     1.0469170571     0.1649411590
 F      2.0121531592     0.6236271360     0.8148821774
 H      1.3693775866     3.5275514194     2.0607111893
 F      0.5910376924     3.0573547141     1.9424273467
 H      2.9266373393     4.5669746030     3.3438532910
 F      2.7416674677     4.3632131328     2.4691210977
 H     -2.5275837695     2.6772360448    -0.3948862940
 F     -1.7513549033     2.4986048916     0.0594799222
 H      2.4982623851     4.2237418150     5.4731342685
 F      3.0406263562     4.7723435962     4.9773859366
