          5
Energy: -3.941387088075433 Kcal/mole
 Xe    -2.3352266988    -3.4972058776    -5.9625187640
 Xe    -0.6845063750    -7.5867183382    -5.6343680062
 Xe    -3.9692938900    -2.9344208593    -9.9996082669
 Xe    -4.2882717823    -6.8707085612    -8.0608780255
 Xe    -0.3588327472    -5.3817460150    -9.4362572657
