          5
Energy: -0.040290833591766405 Kcal/mole
 Xe    -5.0645625579    -6.2191406773    -5.8683873147
 Xe     4.3893615785     5.5222149899     5.7695311469
 Xe     3.3777247656    -2.2340630645    -4.8777583162
 Xe     4.8877310111    -5.2175120269     4.5036417936
 Xe    -4.9440740732    -3.4464856368     3.2639835945
