          5
Energy: -0.047649241158393134 Kcal/mole
 Xe     8.9025234863   -10.4745426042     2.6000935638
 Xe     5.2832863316     8.4439265752     4.1124913710
 Xe     2.2627978753    -9.8503587134   -10.3588728528
 Xe    10.1154954718     8.1880881231    10.1103106868
 Xe     7.3010908028    -0.6368958259     1.6977782121
          5
Energy: -0.006699679634066844 Kcal/mole
 Xe     9.6822449348     8.2274431889    -5.1062145781
 Xe   -10.1686447311    -2.0314023864     8.6428405191
 Xe     8.9122768198    -9.4235424126     5.1328965540
 Xe    -0.7318829190     8.7589924649     3.1914859883
 Xe    -1.1441875850   -10.5328136478     1.1929126086
          5
Energy: -0.7404432446984887 Kcal/mole
 Xe    -1.0689388849    -9.2251667144     0.0926937568
 Xe     6.8100895420     7.0150864920    -2.5932287329
 Xe    -0.3588325193     9.8114467350    -1.7505376133
 Xe    -2.0473517697     7.5216114133     1.7941250337
 Xe    -4.6806815733   -10.1585617669    -3.4274920788
          5
Energy: -2.1825890662567478 Kcal/mole
 Xe    -3.7748983793    -5.5854638008     1.7686373220
 Xe    -5.0962139253    -9.1531339603    -0.5199338347
 Xe    -2.3355783750    -5.9573577770    -8.4280946084
 Xe    -0.7993263937    -8.4314822153    -5.0305570002
 Xe    -3.7826085200    -5.6365847779    -2.3883876601
          5
Energy: -1.4116143050396563 Kcal/mole
 Xe    -7.4238660780    -6.3157161266    -4.6569455103
 Xe     7.1862006362     1.2143026117    -4.0225417365
 Xe    -2.5359139330    -8.7449795956    -9.1560971022
 Xe    -5.7550854344   -10.6221850184    -4.9520856521
 Xe   -10.2402853066   -10.3580751236    -4.7896511250
          5
Energy: -2.2282552181769453 Kcal/mole
 Xe     0.7815281111    -3.8463831033    -8.4763157028
 Xe    -1.2168603171    -9.7256309414    -1.9412763847
 Xe    -0.6458811490    -8.5777845608    -7.3746628033
 Xe    -0.1240236322    -6.0522431128     0.6578903957
 Xe     0.9326497275    -6.5061615180    -3.4340621738
          5
Energy: -3.085782136235167 Kcal/mole
 Xe    -1.3510961743    -0.9750499875    -3.2082511657
 Xe    -3.9682572594    -0.7613700069    -6.8573307419
 Xe    -6.8212251485     2.2846358188    -0.9377258148
 Xe    -5.5229067668    -1.5923624661    -2.6187702014
 Xe    -4.8642653862     2.6989389745    -4.4583336819
          5
Energy: -3.3830459210895585 Kcal/mole
 Xe    -3.5613698848    -4.4891806490    -3.8945491662
 Xe    -1.4597233636    -8.6677141954    -3.8206629434
 Xe    -3.0133435977    -2.4449747944    -7.8792751754
 Xe    -5.0192080660    -6.3020321943    -7.2585720198
 Xe    -0.8638375428    -6.0667918313    -7.2033886560
          5
Energy: -3.6667516833530773 Kcal/mole
 Xe    -2.5096340659    -3.2471366202    -6.1290594872
 Xe    -1.1023859287    -7.6160137891    -5.7312571822
 Xe    -3.9356569632    -3.2049569288   -10.1423041307
 Xe    -4.2176335374    -7.2522300893    -8.9438156416
 Xe    -0.2902189060    -5.2225933525    -9.2929776772
          5
Energy: -3.941387088075433 Kcal/mole
 Xe    -2.3352266988    -3.4972058776    -5.9625187640
 Xe    -0.6845063750    -7.5867183382    -5.6343680062
 Xe    -3.9692938900    -2.9344208593    -9.9996082669
 Xe    -4.2882717823    -6.8707085612    -8.0608780255
 Xe    -0.3588327472    -5.3817460150    -9.4362572657
