          5
Energy: -2.5617004454177734 Kcal/mole
 Xe    -8.3275841193    -3.7700996020     8.9256481986
 Xe    -3.9595040216    -2.3449948859     7.1796657024
 Xe   -10.8950154396    -0.2615235793     8.8635019814
 Xe    -7.2039601914    -0.8277779279     5.5104226749
 Xe    -8.3958204964    -5.1281623500     5.0159423053
          5
Energy: -0.3102131045053701 Kcal/mole
 Xe    -2.1572487275    -6.2558866055     3.1336665264
 Xe     3.1582715620    -6.7451707199     3.9652692476
 Xe     4.8886447401     2.0933960375     6.4643625833
 Xe    -2.9079162507    -1.5892855826     8.3786795065
 Xe    -8.7875051634     9.1406371435     8.1763637916
          5
Energy: -1.4037190891955762 Kcal/mole
 Xe     8.3407631053    -5.5405078330    -4.4103577949
 Xe     9.3653952163    -0.9884255647    -4.1139672906
 Xe     0.8248585750    -8.1012576878     1.6084442574
 Xe     9.8545797952    -3.3587168745     0.1921695756
 Xe     3.7513348782   -10.6283202963    -1.1327349582
          5
Energy: -1.2506716227048267 Kcal/mole
 Xe     1.9526125347     1.8501811921    -4.3244341303
 Xe     6.4905579998     6.6489483166    -0.7200524586
 Xe     7.4659499837     1.6562476101    -3.6631869968
 Xe     7.7251079309    -5.5625365243     7.4625875853
 Xe     6.9979227853     5.7869044953    -4.7869315122
          5
Energy: -2.955764176357502 Kcal/mole
 Xe     7.7709637711    -6.7107415926    -6.4561974049
 Xe     2.0413630258    -8.4092351646    -1.6391761499
 Xe     4.7599671653    -5.2221233390    -3.3462036951
 Xe     8.7805329029    -7.2150090140    -2.4195281460
 Xe     5.9944282774   -10.1871596817    -2.8423383481
          5
Energy: -3.326440832986804 Kcal/mole
 Xe     3.4770551931    -5.8252383087    -7.0572865168
 Xe     2.4004342580    -9.7948721163    -4.2954689759
 Xe    -0.8848125813    -6.2508610632    -5.9050961761
 Xe     0.3551832753   -10.0822233814    -8.1691351733
 Xe    -1.8034432718    -9.9394518535    -3.9774030135
          5
Energy: -3.803037957252344 Kcal/mole
 Xe    -5.7109700994    -5.3461410614    -0.8628607365
 Xe    -0.9050362169   -10.6337416350    -2.1865911394
 Xe    -3.7963820783    -9.2555473151     0.6602548921
 Xe    -4.0520036218    -8.1192029575    -3.7994650813
 Xe    -1.2896301804    -6.3017885391    -0.9906723088
          5
Energy: -3.6077970595532336 Kcal/mole
 Xe    -5.9963229240    -8.3810924053    -0.5088566489
 Xe    -2.2438064042    -6.1921978518    -1.2471305796
 Xe    -2.1408975258   -10.2368856737    -2.0329735970
 Xe    -0.6217145217    -7.4140110222    -5.2885325389
 Xe    -4.7895814531    -7.5223465484    -4.9185023399
          5
Energy: -3.921140194014482 Kcal/mole
 Xe    -7.0160333777    -9.4510240329    -0.4271116321
 Xe    -3.0530684443    -7.7713047241     0.9875704191
 Xe    -3.4378054875    -9.5491654148    -2.9596017921
 Xe    -0.9670943168    -5.9378299878    -2.4228626575
 Xe    -5.3889492374    -5.6369636211    -2.0958504161
          5
Energy: -3.9410301350920576 Kcal/mole
 Xe    -6.9618275945    -9.3258609865    -0.2755984906
 Xe    -3.0512414905    -7.7976957498     1.0091409513
 Xe    -3.5440260433    -9.5462351646    -3.0417363538
 Xe    -1.0101889362    -5.9974726707    -2.4574551752
 Xe    -5.3889492374    -5.6369636211    -2.0958504161
