          5
Energy: -1.7849265859115275 Kcal/mole
 Xe     0.9796547038    -5.7092722008     1.7017374520
 Xe     0.2058957357    -2.3899149347    -1.7108712964
 Xe    -3.2731295418    -4.8548463388    -0.2265799924
 Xe    -2.4448579321     0.8835010140    -0.9203433413
 Xe     1.3034392602    -9.9874767575     8.4822577778
          5
Energy: -1.149130687480254 Kcal/mole
 Xe     2.6777703552     6.4988222679    -0.2956624853
 Xe     9.1761179579    -7.1307391251    -6.7886404982
 Xe     5.9540063623    -4.9156922995    -5.0928725880
 Xe     6.8134794178    -7.1153384749    -1.0770868663
 Xe     3.7330303930    -9.8965945435    -8.0541665347
          5
Energy: -1.1020657665322313 Kcal/mole
 Xe     2.4335170408    -8.1776577199     1.2658620225
 Xe     5.1308377305     1.2251660144    -0.2730595888
 Xe     6.9759786859    -3.7113014510     0.9752429987
 Xe    10.6526877109    -2.0765928877     1.9383955568
 Xe     0.8211241317    -4.4814064321     1.7102985797
          5
Energy: -2.2916095341121836 Kcal/mole
 Xe    -1.5170003783     0.2454908453     4.8487585638
 Xe     2.4804839449    -1.6181290595     4.6509540279
 Xe    -0.6556256678    -5.2987227591     7.2448097709
 Xe    -5.2020251101    -2.9334717565     8.2127672867
 Xe    -0.3878608983    -3.9213620163     2.6204618487
          5
Energy: -2.1331717124417917 Kcal/mole
 Xe     1.2150186663     3.2661689151    -3.8208255386
 Xe     2.7293629983     4.3205820511     0.1451684067
 Xe     5.6578336078     0.8733675854    -1.7946347595
 Xe     1.8560427552    -0.5843982514    -0.9478243565
 Xe    -3.4239372213    -1.7018990894     1.6787149789
          5
Energy: -3.2959755254960528 Kcal/mole
 Xe    -7.4802451531     2.9986231186    -5.8753592793
 Xe    -4.1297088519     5.4905277680    -7.6189304280
 Xe    -3.0652111202     1.5492705549    -4.5377298473
 Xe    -3.9809551728     5.8533229448    -3.3533599413
 Xe     0.0431871369     5.4687771592    -5.6146154609
          5
Energy: -3.7812872899287444 Kcal/mole
 Xe    -6.8505717398     7.3955050333    -3.0192285230
 Xe    -4.2692029513     6.7802898086    -6.6494364205
 Xe    -3.6031675642     4.1684980754    -3.1472519867
 Xe    -4.9664906710    10.7338735475    -5.2297773254
 Xe    -2.6073663145     8.4908817295    -2.6516107257
          5
Energy: -3.8001171659042634 Kcal/mole
 Xe    -1.9764362880     8.9751797667    -2.5744801523
 Xe    -3.1320119866     4.7321401988    -2.4358443610
 Xe     0.6218727738     6.1985825312    -0.8111489344
 Xe    -4.2826698939     7.1519126100    -5.9547618571
 Xe    -0.0590997940     5.7221017056    -5.3718094197
          5
Energy: -3.8758045369004988 Kcal/mole
 Xe    -4.0399897869     9.0623517860    -0.1118189294
 Xe    -7.4111103575     6.5665865830     1.0079050963
 Xe    -3.8841350447     7.1248023469     3.8885446758
 Xe    -5.7301893567     6.2258847945    -3.0431236034
 Xe    -3.3251477910     4.7285919076     0.1432942584
          5
Energy: -3.941129158466749 Kcal/mole
 Xe    -3.9861055027     8.9613122130    -0.0615760528
 Xe    -7.3466417593     6.3702950216     1.1339688626
 Xe    -3.9710886399     7.0016731564     3.8968574067
 Xe    -5.8598257508     6.2456875816    -2.9996607903
 Xe    -3.4142710045     4.5758849180     0.2484137262
