          5
Energy: -3.9410301350920576 Kcal/mole
 Xe    -6.9618275945    -9.3258609865    -0.2755984906
 Xe    -3.0512414905    -7.7976957498     1.0091409513
 Xe    -3.5440260433    -9.5462351646    -3.0417363538
 Xe    -1.0101889362    -5.9974726707    -2.4574551752
 Xe    -5.3889492374    -5.6369636211    -2.0958504161
