          6
Energy: -0.8483988312559841 Kcal/mole
 Ne    -5.7857508144     2.9318868016    -2.3915717953
 Ne    -3.4949011775     2.3117625846    -0.3852685986
 Ne    -4.9734357389     5.0853067726    -0.3134599967
 Ne    -4.0917231868     3.7337411516     2.3301504983
 Ne    -1.9405020875     4.8910915493     0.3844454706
 Ne    -6.3946399855     2.4991885264     0.6463625031
