          6
Energy: -0.011953126740503459 Kcal/mole
 Ne    -0.7378258903     2.2704450677    -2.3454435812
 Ne    -6.8530286994    -1.3921463503     6.6744827037
 Ne    -8.0413790333     2.0755458101    -7.5754085145
 Ne    -6.9137793868    -6.5385081804    -4.6668676597
 Ne    -3.1547750599     4.6816777388     0.9932856976
 Ne     3.9728378690     2.0952826486     5.1510658463
          6
Energy: -0.03892610924462718 Kcal/mole
 Ne    -8.0934468586    -3.8782957445     6.8601830484
 Ne     0.1343315165    -2.3496640852     2.5282363841
 Ne    -6.6054082230     5.8963220790     2.0010207038
 Ne     0.9662162824     1.6845189846    -1.5271472944
 Ne    -2.7327688805    -7.9515223362    -1.7471414077
 Ne     0.2234086935    -2.0792892043     6.3720015426
          6
Energy: -0.0630521427167153 Kcal/mole
 Ne     6.6898634628     0.5720175117    -4.2592142534
 Ne    -2.2545085338    -5.8532344840     4.6648500997
 Ne    -6.8890616813    -2.6847099803     2.2870421466
 Ne    -4.3305447227     0.8011887191     8.1040533634
 Ne    -7.4653515315     1.9600798791     7.4635716979
 Ne     7.5132545080    -6.9851201010     5.0067698603
          6
Energy: -0.0010397667687776174 Kcal/mole
 Ne     7.8873100940    -0.2228052956    -4.5134735194
 Ne    -7.0099907203    -6.9588427082     6.6475175555
 Ne     5.1534472261    -6.5584966238    -7.9392323637
 Ne     4.1890229565    -6.8641901097     5.8920413775
 Ne    -6.4841394477     3.4698428683    -3.7011357025
 Ne     5.2776598150     6.5335769179     0.9383990377
          6
Energy: -0.05384106019808915 Kcal/mole
 Ne    -2.1527999939     3.8137409306     4.8470204125
 Ne    -4.2145042649    -6.7922873248     0.4968180769
 Ne    -6.4196104230     3.3595205384     7.4636084814
 Ne    -5.0161629284     5.2312514323    -4.3276292102
 Ne    -1.3898131349    -7.8646359812    -1.5743839526
 Ne     0.6313537674     3.4327977381    -3.5776644626
          6
Energy: -0.02215658524860303 Kcal/mole
 Ne    -3.5753309988     1.9589203200     1.0523352263
 Ne     2.572964E-40    -0.4324661909    -0.4077386367
 Ne    -3.2033733433    -4.8681607739     5.3386832157
 Ne     7.1599549211     2.7074842164     7.4863627462
 Ne     5.3766607506     7.2452729712     5.5654481000
 Ne    -5.8336032002    -2.5801618364    -5.0575045492
          6
Energy: -0.01611595067332444 Kcal/mole
 Ne    -4.3843888427    -4.3573994860     6.2413307746
 Ne    -0.9066812726     5.6657688043    -4.9396149015
 Ne     4.8151102085    -5.5070240529     7.6422774558
 Ne    -8.2220916598    -2.1800157069     7.7898914772
 Ne     3.2728758711     7.5783110572     4.7973347164
 Ne     1.2745713444     3.2780385138     7.9514514690
          6
Energy: -0.02688268578714312 Kcal/mole
 Ne     7.9044194822    -3.5552451199    -1.2306711689
 Ne    -0.2836237144    -6.0771729931    -6.3740414969
 Ne     2.5120370823     2.4009094224     1.3165244886
 Ne    -1.2814297089     1.4497283225    -3.3411537773
 Ne     1.1734336488     6.3532164491     1.1971104094
 Ne     6.6493186677     7.8354274626    -6.8636533604
          6
Energy: -0.12316654252412315 Kcal/mole
 Ne    -4.7539581580     3.7423321328    -3.8736852208
 Ne    -4.1213190794     4.5293116607     1.2820036462
 Ne    -5.4814678197     6.1275874099    -1.1467981021
 Ne     1.3585927031     3.2741890361     5.7696411467
 Ne     1.3072633090     5.9032862086    -2.1072337323
 Ne    -3.0934548746    -1.7138396184     2.5303696466
          6
Energy: -0.8483988312559841 Kcal/mole
 Ne    -5.7857508144     2.9318868016    -2.3915717953
 Ne    -3.4949011775     2.3117625846    -0.3852685986
 Ne    -4.9734357389     5.0853067726    -0.3134599967
 Ne    -4.0917231868     3.7337411516     2.3301504983
 Ne    -1.9405020875     4.8910915493     0.3844454706
 Ne    -6.3946399855     2.4991885264     0.6463625031
