          6
Energy: -0.8481548408321885 Kcal/mole
 Ne     2.5594928257    -0.2025298626     3.6259843270
 Ne     0.1816667847     1.5543914463     4.5886653751
 Ne     0.9882315619     3.0793872819     7.1891811327
 Ne     3.1598052224     2.5087545189     5.0465990926
 Ne     2.0098647923     0.1597362155     6.6866102969
 Ne     0.9154991581     4.5504472616     4.4074457957
