          6
Energy: -0.061164884588665924 Kcal/mole
 Ne    -8.0966414757    -2.0557379348     1.6683997734
 Ne     7.7862291993     2.4763221529     3.5091103437
 Ne    -0.8125063596     0.4941935292     3.2383901136
 Ne     5.6766919430     8.0121744545     3.1521090604
 Ne     5.0728408563     4.5591953629     1.3587995392
 Ne    -5.1015911682    -3.0976349174    -6.2791708098
          6
Energy: -0.12321396311823608 Kcal/mole
 Ne     1.8105712387    -4.5060916685     0.8285098505
 Ne     3.7764011584    -1.9359532324     2.7664631448
 Ne     0.2299513515     5.1273698588     1.5144923270
 Ne    -2.0662273099    -2.5339301538     2.9679025887
 Ne     0.2489639850     6.1453413782    -1.3752294267
 Ne     7.0186057249    -5.1755937948     6.3575859679
          6
Energy: -0.03608190130877274 Kcal/mole
 Ne     1.7281203116     5.6037654552    -0.4371262502
 Ne    -1.2822073003     6.0237616714    -3.8281673223
 Ne    -5.4653241153    -7.8645230880    -5.0321128899
 Ne     8.1999879195     0.0906178304    -1.3091310078
 Ne    -0.0798362052     1.6092114231    -1.7229106832
 Ne     8.0340980431    -7.3285709082    -1.5115911607
          6
Energy: -0.0327658303029932 Kcal/mole
 Ne     1.9947978087     0.9938454546     2.4925206822
 Ne    -0.9347454462    -3.4922880575    -6.3233383163
 Ne    -6.8339050172    -1.7383232709    -0.6498446086
 Ne    -7.8822517137     4.9250653839     7.7671195206
 Ne    -0.5332353233     7.5541250145    -4.9630757310
 Ne    -3.1611540053    -1.7360773244    -6.5288199011
          6
Energy: -0.039586479207323895 Kcal/mole
 Ne     1.4060152135    -6.2223089361    -2.1823462480
 Ne     4.2537394645     8.1923493968    -7.8671546811
 Ne    -0.7417186405    -4.6748123029     1.0765139322
 Ne     4.0087725281    -5.5319855723     2.5780145547
 Ne     6.4496013080    -8.1986353469    -3.6867820837
 Ne     6.5031237072     1.6456294241    -4.7534046195
          6
Energy: -0.03523796742652435 Kcal/mole
 Ne    -4.2005063736    -1.4009220363     5.2831828727
 Ne    -7.4106619282     5.1548392689     6.2142407808
 Ne    -4.3429259639    -5.4036918672     5.1848615134
 Ne     3.9048916286     4.1900363378    -4.1746939885
 Ne     1.2548618604    -1.1351419181     7.0291030585
 Ne     5.4356253418     1.8648400089     1.8416754586
          6
Energy: -0.13620226064782998 Kcal/mole
 Ne     4.9989222675    -0.4132448909    -0.2921110688
 Ne    -5.5161649833     3.8934265525    -4.7647982992
 Ne    -3.6675507934    -2.0660813958     0.7176783393
 Ne     0.4751044398     0.2511906888     0.8333159300
 Ne    -7.4726780251     1.7818345564    -1.9390800496
 Ne    -4.1329265628    -1.0867017428    -2.4466743321
          6
Energy: -0.1287501886682623 Kcal/mole
 Ne    -5.4779860796     5.5661854975    -1.4446872975
 Ne     6.0932671069    -4.2669375703     2.6109300582
 Ne    -3.5516934046     2.7007366252    -2.4792349820
 Ne    -2.8692603985     8.1227313341    -5.7385969108
 Ne    -7.3029123088     3.1968700342     0.0035109582
 Ne    -1.2512282524    -6.7092974159    -1.5653630497
          6
Energy: -0.622509004576286 Kcal/mole
 Ne     0.7624703609     5.3358610978     0.1216742128
 Ne     4.8818646004     4.2601582610     4.3633741430
 Ne     2.0816449138     2.4078109009     0.0598001596
 Ne     3.3984719528     4.7098598212     1.8874497290
 Ne     1.8822957157     5.7491093629     5.2065558170
 Ne     0.6861484413     3.9939200412     3.0065794624
          6
Energy: -0.8485886249335622 Kcal/mole
 Ne     0.9610455724     5.4662025773     0.6932207010
 Ne     3.5144267914     3.7901944820     4.7588741699
 Ne     2.0010285379     2.5890023842     0.0344320882
 Ne     3.7341407293     4.4995475958     1.7443890038
 Ne     1.9047385561     6.1916930682     3.5788665348
 Ne     1.0709736639     3.2807056938     2.9211915249
