          6
Energy: -0.06079265416685973 Kcal/mole
 Ne    -0.4973315798     2.7341491535    -6.2609140440
 Ne     7.6945733975    -1.8260729497     6.8002263873
 Ne     6.3933206494     4.6732596233    -8.0552595027
 Ne     3.6198725163    -1.7693849199    -1.6237746081
 Ne    -6.9760444402     2.7987461582    -4.6763805663
 Ne    -3.5659637252     4.9347433581    -5.4363946042
          6
Energy: -0.13449858274790633 Kcal/mole
 Ne     1.8655436395     1.6182584366     3.6121893131
 Ne    -3.3113204142    -3.9494838259     6.3659038177
 Ne    -3.2035411277    -2.1393678534    -2.9644942805
 Ne    -2.1516371922    -6.8094421575     7.5447021718
 Ne    -3.2758025331     0.7781192304    -4.7711768844
 Ne     5.2689057570    -1.3662234590     3.2278009024
          6
Energy: -0.07990518435038836 Kcal/mole
 Ne    -5.3120413501     1.2169681614    -3.0064232466
 Ne     2.4985389309     6.0998198188    -6.6784425260
 Ne    -4.4041726705     2.0050390701    -0.0214676162
 Ne     8.0237325029     3.4785870431     4.0867627616
 Ne     8.1243065569     2.9087717719    -0.6925494375
 Ne     4.2135782312    -0.0712853008     7.5206790410
          6
Energy: -0.01822086759136342 Kcal/mole
 Ne     0.5719663131     7.9830476527     0.6862392669
 Ne     0.4924954980    -1.2747173156    -5.0682301441
 Ne     2.8401245617     7.8377419224    -7.4888087854
 Ne     5.5803742358     2.8829034325    -7.5307143097
 Ne     6.7924325297     2.4533885864     6.0102696132
 Ne     2.5995331802     2.7814841506    -2.5705418809
          6
Energy: -0.043242425620548204 Kcal/mole
 Ne     2.5480410771    -0.0807224893    -5.4124116040
 Ne    -0.1427861427    -7.4691798981     2.4563403448
 Ne     4.4445334442    -7.8609525866     5.5837840382
 Ne    -3.3150007479    -7.9580886261     0.4530249734
 Ne    -0.4726879646     7.4578987295     3.0979656913
 Ne    -3.3517887332     2.1977934540     0.1512833212
          6
Energy: 0.003655286615300241 Kcal/mole
 Ne     7.9827453835    -6.8072981252     2.1833748854
 Ne    -7.1884550689     4.1649643099     0.8169061963
 Ne     1.5137277539    -5.8965342903    -7.2912843499
 Ne     5.8067060848    -5.2676436979     2.7416697306
 Ne    -5.0808755010     6.2344018075    -6.9585958359
 Ne     7.0806458541    -2.3427785141     4.9884593280
          6
Energy: -0.12980282931814618 Kcal/mole
 Ne    -5.5390548742    -4.0231963582    -0.8310371228
 Ne     3.9676736757     7.3468384220     6.5800586380
 Ne    -6.5945036663    -3.2620971392     2.2458766412
 Ne    -1.9472938576    -4.9354583923    -2.0168363332
 Ne    -6.6906800087    -7.8311270597    -1.2773386189
 Ne    -6.6042699452     5.5751316889    -6.4539359876
          6
Energy: -0.13689053343950497 Kcal/mole
 Ne    -1.5471006888    -4.1209368205    -6.9980571047
 Ne    -7.1647552267     2.5533614587    -5.4413902669
 Ne    -7.5841741395     3.5359158779    -0.2192641118
 Ne     1.5795570476     4.7413876218    -4.6088560021
 Ne    -0.2033115234     6.9510575924     6.2765581696
 Ne    -6.1514518798     4.2645588369    -2.7966005380
          6
Energy: -0.7358651861396445 Kcal/mole
 Ne    -4.2183969620     4.0592751033    -6.2010436216
 Ne    -4.3194289649     6.9920587618    -6.5527475047
 Ne    -6.3396455112     4.8847557468    -8.0618615753
 Ne    -5.2138671373     5.6492534510    -3.8870840059
 Ne    -7.6897478594     3.5473594321    -5.4974429047
 Ne    -7.5213362610     6.8005550579    -6.2652987070
          6
Energy: -0.8765422841851559 Kcal/mole
 Ne    -4.2413626867     3.9916523296    -6.1155618231
 Ne    -4.5661901774     7.0090682900    -6.7850271385
 Ne    -6.3197817796     4.8728914408    -8.2299079057
 Ne    -5.5237349355     5.8893400543    -4.0472308313
 Ne    -7.3018579627     3.7849365012    -5.4775773063
 Ne    -7.5863437685     6.8175780513    -6.1612057713
