          2
Energy: -1.3147608247685086E-5 Kcal/mole
 He    -5.0874263643     4.3968685144     5.0770242027
 He     2.9652555681     2.1894133735    -1.9618864522
          2
Energy: -2.1503561439023765E-5 Kcal/mole
 He     4.1915665321     1.8620888596     4.1578261294
 He    -0.1745010611    -5.8561480182    -0.5949119359
          2
Energy: -0.0010997812450799314 Kcal/mole
 He    -2.5920592885     0.9108219620    -3.8778906968
 He     0.3865712002    -2.3910962860    -6.5926132106
          2
Energy: -1.5593974381621454E-5 Kcal/mole
 He    -0.0318209415    -5.1863858116     6.1585625706
 He     3.0952223051    -4.0054318285    -3.9159583346
          2
Energy: -1.1107718304995324E-5 Kcal/mole
 He     2.4268312383     6.8875226066    -6.7067579847
 He     4.8450220849     5.8790742571     4.2155062854
          2
Energy: -1.9854768921981328E-6 Kcal/mole
 He    -4.7015238007    -6.2947581178     6.8882152968
 He     4.5782255607     4.9120300984     3.3859510843
          2
Energy: -1.368983862769544E-4 Kcal/mole
 He    -6.1358763526     1.4262442854     1.5441988479
 He    -6.5037999787    -4.7423763494     5.5940870442
          2
Energy: -3.604864684123447E-4 Kcal/mole
 He    -1.7630436879    -0.0498333620    -5.4155143578
 He     2.1821775687     2.2496358958    -1.0979057792
          2
Energy: -2.2845268113464545E-6 Kcal/mole
 He    -7.3761590881     7.0728699913    -5.4709878416
 He     1.6207644182    -2.4314047019     1.0453245012
          2
Energy: -0.01999999996766505 Kcal/mole
 He    -1.9482166519     0.9886258545    -1.6088544006
 He     0.2451758432    -0.4300127632    -0.4224211072
