          2
Energy: -1.8801867509596828E-4 Kcal/mole
 He    -3.4397564805    -3.2580613995    -3.8567531995
 He    -5.9322418191     2.6762444374    -6.6264061432
          2
Energy: -4.555127418012065E-6 Kcal/mole
 He     2.8268058513     7.4735709527    -7.1984442270
 He     4.8143333050     4.0521626990     5.2176307784
          2
Energy: -0.0022567865426768156 Kcal/mole
 He     6.8515531966    -2.1562534063     2.7053004064
 He     3.5711085746    -5.3883396512     2.4963660524
          2
Energy: -9.439942990414284E-6 Kcal/mole
 He    -4.9540077825     7.0155223435     6.1489605476
 He    -0.0018694438    -3.4003659769     5.7275343438
          2
Energy: -2.9265058102088666E-4 Kcal/mole
 He     2.1214394037    -6.0712241637    -0.2353207886
 He     0.2824823610    -3.5468182523    -5.9444293056
          2
Energy: -5.476817045984414E-6 Kcal/mole
 He    -1.3284328619     1.0475023727    -2.4018229037
 He     6.8374190424     5.4559458252     6.1761912993
          2
Energy: -1.977538774805109E-6 Kcal/mole
 He    -5.5802165684    -6.6839306554    -1.5159123549
 He     2.4715010282     5.2684468028    -5.5879528379
          2
Energy: -1.8952996724790018E-4 Kcal/mole
 He     5.8778167189     1.3291709810    -4.5569669745
 He     5.0642680435     6.5180209210     0.0671283547
          2
Energy: -7.9428767082907E-7 Kcal/mole
 He     3.8344580008     7.4999118029     4.8742189135
 He    -6.4134179652    -6.6029739855     4.6393433316
          2
Energy: -0.019999999992870433 Kcal/mole
 He    -1.7669863987     0.3853010935     6.9433490461
 He    -2.7388047759    -1.6083986822     5.1234794288
