          2
Energy: -2.040516841694124E-5 Kcal/mole
 He    -2.1523543614     6.6272230143    -3.2135088721
 He    -4.3911374067    -2.6259190325     0.3042345171
          2
Energy: -5.3711248076082064E-5 Kcal/mole
 He     1.4418573200    -2.8012595350     4.8402208659
 He    -5.4994821297     2.1463017858     3.4500202065
          2
Energy: -2.9314588517100586E-4 Kcal/mole
 He    -3.3667150260     3.8224543124     3.2637849834
 He     0.8011838892    -1.1400492085     2.6923542003
          2
Energy: -3.0115776913883144E-6 Kcal/mole
 He    -0.0937102618     6.7908513118    -4.6807345451
 He    -1.7134056314    -4.5654101156     3.2781097258
          2
Energy: -1.126879817188031E-5 Kcal/mole
 He    -5.4109753629     3.5571652061     7.3874671629
 He     3.8738882336     1.9921659261     1.3130569608
          2
Energy: -2.6802085025233577E-5 Kcal/mole
 He    -3.8128374792    -2.3365017071     2.5636989784
 He     4.6637694812     2.1995728744     3.8387755035
          2
Energy: -7.449833821232353E-6 Kcal/mole
 He    -5.0207554591     2.1992493523    -4.5283783196
 He    -7.3773359068     1.7573278122     7.2352000018
          2
Energy: -2.1684277333436396E-6 Kcal/mole
 He    -6.5448581654     6.8390188244    -6.6630171748
 He    -5.2520299266     0.7698899622     6.7153613275
          2
Energy: -0.002677986384434291 Kcal/mole
 He     4.5671860340    -1.7277583502    -5.5665425359
 He     2.8440084048     2.3386745893    -6.2938878701
          2
Energy: -0.019999999996470175 Kcal/mole
 He     3.4620105830    -1.0865446328    -5.8593221671
 He     3.3278693533     1.7220449712    -6.4294824628
