          4
Energy: -0.8960621190571838 Kcal/mole
 Kr     0.5188813851    -4.6709527298    -0.2619891983
 Kr    -2.6590853990    -2.3572934376    -1.8934238373
 Kr    -3.3554423722    -6.3215522738    -4.8587278475
 Kr    -5.9039156482    -3.5188629369     0.2980115446
          4
Energy: -0.3662584231561385 Kcal/mole
 Kr     5.2115359804     2.9390575827    -1.9511363826
 Kr    -6.9004576825    -5.7466282648     0.5031721051
 Kr     1.0986670070     0.0510743735    -1.0860304483
 Kr    -5.1517199067    -3.9594335668    -3.4940085431
          4
Energy: -0.9524580447292093 Kcal/mole
 Kr     4.1218288675     1.5310071144    -5.3395712884
 Kr     6.3858489344    -6.9203002072    -2.4630813337
 Kr     0.6419485523    -0.3952177495    -5.8590217022
 Kr     4.1123954291    -2.9502068268    -4.2225521186
          4
Energy: -0.2300783400378635 Kcal/mole
 Kr     1.5828775478     2.5605539519    -5.3240000563
 Kr     6.3141583125     2.0162827643     5.5935821913
 Kr     3.3629361076    -0.0627194407    -1.2817160518
 Kr    -0.7316681862    -0.0594858635     3.0436879773
          4
Energy: -0.5309264294734558 Kcal/mole
 Kr    -2.1559803440     4.0927423236    -0.5685495758
 Kr     0.1324763158     6.3670970526    -3.8267059074
 Kr    -2.9610636235     4.5721256844     3.6625786487
 Kr     6.2848964432    -2.5031424587    -5.2511023362
          4
Energy: -0.7009443172897744 Kcal/mole
 Kr    -1.7153773595    -3.7188556292     1.7828342180
 Kr    -0.1207417975    -4.7255636040    -1.5369018790
 Kr     2.5834384286    -1.9903449105     1.9155912924
 Kr    -0.4519973007     1.0563008880    -3.5555073773
          4
Energy: -1.7321241327063648 Kcal/mole
 Kr     6.4644157834    -3.5888489532    -4.2766153364
 Kr     3.2465986498    -2.0882257373    -2.2267323942
 Kr     5.3466368653    -5.9741349257    -1.3738000708
 Kr     2.9528205802    -5.0667325763    -4.9608794268
          4
Energy: -1.7427402467923192 Kcal/mole
 Kr     3.0063278504    -2.6730944545    -1.1523797170
 Kr     6.0752506060     0.0131805599    -1.6308941010
 Kr     1.7054718122     0.8491908525    -3.1879991294
 Kr     4.4064866960    -2.0112509725    -4.7888867593
          4
Energy: -1.7726007316807062 Kcal/mole
 Kr     2.0817123490    -1.9837268251    -5.1271510532
 Kr     4.4179170729     0.9187167700    -4.1619222920
 Kr     1.1443890871     0.1665772426    -1.7154459930
 Kr     0.9566438663     1.9824355585    -5.3620749679
          4
Energy: -1.9018638883264027 Kcal/mole
 Kr     2.2130632889    -2.1592996607    -5.0678496333
 Kr     4.5008027936     0.9691320896    -3.8155152339
 Kr     1.1531136560    -0.0627965987    -1.7433405140
 Kr     0.8166230233     1.6575718245    -5.4109965116
