          4
Energy: -0.9196671281179296 Kcal/mole
 Kr     0.5768470074    -4.4527460983     1.2396822532
 Kr    -7.4964389964    -7.3494339901    -0.0558595925
 Kr    -5.2778408038    -4.2730045109    -1.8849803172
 Kr    -2.1249054980    -6.8573112308    -1.9963156538
          4
Energy: -0.38060384510042305 Kcal/mole
 Kr    -2.3344914264    -4.1096326654     5.3761096204
 Kr    -0.2899863291     2.6072382077    -5.5046774398
 Kr    -3.7762436308    -2.2447530230    -0.0313164676
 Kr     0.8446566742    -2.4121477182     1.6014515959
          4
Energy: -0.4555776545455818 Kcal/mole
 Kr    -4.5756081564    -2.7696693695     5.1017352902
 Kr     6.3375027176     3.4830178563     3.4482548704
 Kr    -2.3560351568    -4.8075241221     2.5607058668
 Kr     6.0480971939     6.9322471524    -0.2229284926
          4
Energy: -0.1645650342653542 Kcal/mole
 Kr    -0.6313350351     1.0094869765    -6.4589660659
 Kr     1.2140932291     0.2214381075     4.3300078172
 Kr    -2.1316958987    -5.6334691738    -4.7031486109
 Kr    -0.3252733298    -4.6325125944     3.2298773916
          4
Energy: -0.6887941537422095 Kcal/mole
 Kr    -3.8625697351     1.3663264719    -1.4384291563
 Kr     0.5862416915     2.0306293673     1.7361473887
 Kr    -5.2755203861    -1.9233659937    -2.6135981905
 Kr    -2.5216699044     4.8137812655    -2.8862144522
          4
Energy: -1.4217140984766345 Kcal/mole
 Kr    -1.2006896504     3.7973964603    -1.6560700385
 Kr    -1.0799190157     7.3920194298    -3.1950723693
 Kr    -4.6028002769     5.5893249109    -0.9866745314
 Kr    -2.3837901734     3.2861357061    -5.3730564662
          4
Energy: -1.8598488813199987 Kcal/mole
 Kr    -4.4267654742     1.8449096424     2.0886957997
 Kr    -1.9246795393     4.6107989533     0.0844450062
 Kr    -1.7574335888     0.7528479784    -0.6576222638
 Kr    -0.5325763735     2.2160472813     2.9951579893
          4
Energy: -1.7701347833849308 Kcal/mole
 Kr    -0.7690943235     3.2323565901     4.8159938900
 Kr    -4.5920259348     3.0798224528     3.8488006028
 Kr    -2.1665626248     5.4932819941     1.7783056937
 Kr    -2.8275345252     6.3101567735     5.5670937570
          4
Energy: -1.8403220828406839 Kcal/mole
 Kr    -0.5342936766     3.9532420010     7.4947277794
 Kr    -1.6044924514     6.8570492096     4.6945356177
 Kr    -4.6052791795     5.6400864839     7.1139590814
 Kr    -3.0680905855     3.0978739629     4.4490598638
          4
Energy: -1.9018094014101932 Kcal/mole
 Kr    -0.6476850441     4.0322594841     7.4538690884
 Kr    -1.7071570714     6.8447248185     4.7017790389
 Kr    -4.4663644523     5.4467506495     7.3450145363
 Kr    -3.1037555404     3.0373941645     4.3787656526
