          4
Energy: -0.15781494563536175 Kcal/mole
 Kr     1.7559082594     5.1587325481     2.7240391718
 Kr    -4.0385877112    -4.6825697962     3.9392074966
 Kr    -2.2798240247     4.3286098005    -3.3708354925
 Kr    -6.8203318025    -6.8646268565     0.2082959514
          4
Energy: -0.44479992664969736 Kcal/mole
 Kr     3.2039243661    -4.4830056981    -2.7658012891
 Kr     3.1764370276    -6.2976186291    -7.4808991488
 Kr    -1.9739248780     2.3978227183     4.5026121406
 Kr    -1.1130095097    -5.9164881691    -3.2609156084
          4
Energy: -0.2373228557584475 Kcal/mole
 Kr     4.4379583320    -6.1943590736    -4.7985370214
 Kr    -5.7113259981     0.8275838226     5.9906744543
 Kr    -0.9515627317    -0.3532579421     1.0684589621
 Kr    -2.0556446831    -3.3077722720    -0.9625310925
          4
Energy: -0.5345400468319054 Kcal/mole
 Kr    -6.6857386403    -1.8990578365     3.3289332511
 Kr    -3.8369031508     1.3848597494    -1.5271295736
 Kr    -4.8960789980     1.7667848855     3.2085609102
 Kr     5.8844888646    -4.5695170034     3.5687718048
          4
Energy: -0.47807469581837597 Kcal/mole
 Kr     6.2052224115     4.8014844293    -4.2325330357
 Kr     2.5151438777     6.2198492347    -3.4197732540
 Kr     4.7815136681    -2.7036482593     4.2228103167
 Kr    -0.4087668927     3.8834320008    -6.9196707442
          4
Energy: -0.061238672104559855 Kcal/mole
 Kr     1.6777904493    -7.0969590749     5.1223751680
 Kr    -0.2357567949    -2.3988895694    -2.3025705619
 Kr     6.1483805479    -3.8744470494    -1.7514572133
 Kr     0.3219846011     0.9640256240     6.2864589693
          4
Energy: -0.43885365962077105 Kcal/mole
 Kr     5.4694774011     2.6195741187     2.9274433529
 Kr    -0.7493091620    -2.0710301666     7.3583289110
 Kr     2.5744206085    -0.5864096008     3.4523182236
 Kr     6.7375710329    -5.1256668080     0.5464291589
          4
Energy: -1.5432465172431726 Kcal/mole
 Kr    -1.4663245175     6.7802102064     1.8907891193
 Kr     0.1078849425     3.2757147249     3.1010194616
 Kr    -3.9868567768     3.0843894957     4.5837352615
 Kr    -1.0232811271     6.4292029159     5.8146317168
          4
Energy: -1.7308929529355284 Kcal/mole
 Kr    -1.4304081239     6.0899924632    -0.2163488959
 Kr     1.7008142850     3.3579914595    -0.6526948089
 Kr    -2.1167698762     2.1250461999    -0.6426902271
 Kr     0.0543608808     2.8275381086     2.7602567769
          4
Energy: -1.9019784234630488 Kcal/mole
 Kr    -1.2050477362     5.9511175379     0.0733616405
 Kr     1.8531407453     3.3643203711    -0.6396037931
 Kr    -1.9757460540     2.0033903200    -0.5406271471
 Kr    -0.1524973768     3.2112622866     2.8922596883
