          4
Energy: -3.3890890806411616E-4 Kcal/mole
 He    -2.0993672673    -5.1350101744     3.3406817895
 He     0.2036666706     3.5556377279     7.0596225164
 He     3.9297397047    -2.6580817492     6.8800097760
 He     2.7694116856    -4.2088347636    -5.7354689447
          4
Energy: -4.96289533334172E-4 Kcal/mole
 He    -4.4776892336    -3.9015098318     2.0349545934
 He     0.0890264286     5.6908643518     1.1759631110
 He     1.8164013959    -4.0908019001     6.5707951574
 He    -6.2209609703     3.3939038343     1.0975647981
          4
Energy: -0.03778674465927125 Kcal/mole
 He     4.6727974124    -5.3319188103    -0.6426717733
 He    -6.2476665350     0.4058597842    -6.4191378891
 He     4.6375857339    -3.0176260879     1.5011555035
 He     2.1396331989    -6.5060552706    -0.4131027487
          4
Energy: -0.012784538168720817 Kcal/mole
 He     6.9263388179    -2.0998246762     2.1555764265
 He    -4.5756617526     1.5697166782     1.0541517190
 He     6.5170425574    -4.2762164495     6.9001127190
 He     5.3490070732     0.4780067660     0.5663138516
          4
Energy: -5.552747130803685E-4 Kcal/mole
 He     4.0439842166    -1.0600016616    -4.1270474251
 He    -5.9133128849     4.0724059644    -2.9146060536
 He     0.4417467265    -5.1896901073    -6.4026131954
 He     5.0285621237     6.0559279633     2.9943775800
          4
Energy: -1.4629256313086693E-4 Kcal/mole
 He    -1.1214183552     4.4546760180    -4.4635113735
 He     2.7954595051    -3.5191339313    -2.7024337557
 He     6.0335882765     2.8051130086     5.9276680558
 He    -4.5327125763    -3.8754500349     1.1191057710
          4
Energy: -7.014492152046486E-4 Kcal/mole
 He     0.7953072346     3.1950222654     2.1817787046
 He     4.7106390775    -1.6692525515     7.1540504112
 He    -3.5935276469    -5.8726892169     1.6481246891
 He    -3.5285247641     2.8210964187     6.1839024307
          4
Energy: -0.01956448051029321 Kcal/mole
 He     5.9048979977     6.4858155229    -2.0089267362
 He     2.8762612706     0.3002946774     1.6520414067
 He     5.6802384297     0.1223571988    -6.7153925910
 He     4.8792604082     7.3771364495     0.6426861520
          4
Energy: -0.0011876266069522994 Kcal/mole
 He    -6.0699124745    -7.3344812838     6.6922653356
 He    -3.5206988096    -1.1255377328    -3.7856401539
 He     2.9736514116     2.4262422788     3.6373314921
 He    -3.0210035993     2.8776998133    -0.3551055995
          4
Energy: -0.11998937666229958 Kcal/mole
 He    -1.2790036059    -0.4238360645     1.1592046886
 He    -0.6671908291     0.2084013724    -1.5736363082
 He     0.5724558914     1.6743804880     0.5633838066
 He    -2.2145903522     2.0361525091     0.0045572381
