          4
Energy: -0.001386538073054869 Kcal/mole
 He    -7.2262261746     3.9167637605     0.0556089525
 He     4.8488637541    -4.8761538312     3.2190672646
 He    -0.6936148581    -0.7551953283     2.2372208940
 He    -6.5558135971    -1.0059056726    -1.8866702885
          4
Energy: -0.013482023020746267 Kcal/mole
 He     5.4580401873    -5.1474606266    -2.9646851702
 He     5.0150277687    -3.3539338136    -5.7045114457
 He     4.8339355009     5.1630291595     3.4393048500
 He    -7.3345043608    -1.2771474013     5.3543019846
          4
Energy: -0.004452987671647736 Kcal/mole
 He     0.7118598959     0.1205453038     2.0990841552
 He    -2.4587351771    -1.1429360093    -0.5542995326
 He     4.3480558118    -3.1227120796     4.6674722408
 He     5.7747996617     3.8721760691     5.4276335069
          4
Energy: -0.019203745866858 Kcal/mole
 He    -5.5313351568    -2.9094761557     7.0030848125
 He    -4.7197601437    -5.0027262174     0.2765844509
 He    -4.1908505861    -3.0135879951     4.8727556145
 He    -4.6567303717    -2.0343204082     1.5129737046
          4
Energy: -0.005531070846342365 Kcal/mole
 He    -1.9811987597    -5.4000194877     4.7657282772
 He     6.5780994039     4.0840239495    -2.8859578393
 He    -5.1396942224    -7.0262955308     6.5696970430
 He     7.0509197122     0.4363346264     2.3368076281
          4
Energy: -0.0015453702981731154 Kcal/mole
 He     6.3145397938     1.8712947394    -6.2008430813
 He     1.4269270318    -2.3250648524     0.6381359020
 He     0.1293374009     3.6513511821     0.4033144040
 He     4.4686212416    -6.4489269380     1.8463168001
          4
Energy: -9.9628074852554E-4 Kcal/mole
 He     3.1535552742    -0.5096388962     5.7701173596
 He     0.4046662594     2.2572386396    -5.1437252240
 He     3.0612244120    -4.1939391977    -7.4247588433
 He     5.0171834362     3.0846661618     2.0117860272
          4
Energy: -0.021750855654222707 Kcal/mole
 He     2.8565034176     1.3159970747     1.9975438752
 He     1.9616041364    -4.3795907748     6.4414159306
 He     0.1368669428     1.4878652138     1.3903179558
 He    -2.8069468412     1.0563277083    -2.2774193188
          4
Energy: -0.009726591974928856 Kcal/mole
 He     4.6862213059    -4.6540584496    -6.7935437194
 He     5.9748722800     3.6274539009     0.8081680748
 He     2.3636621867    -3.5899643914    -7.3819317703
 He    -7.1030334381    -3.2050056359    -0.3211561705
          4
Energy: -0.1199808397649881 Kcal/mole
 He     3.8065990042    -4.3107516404    -4.9991592876
 He     3.0059378948    -1.7034691753    -4.1245785199
 He     2.4007977152    -2.5520208326    -6.7867582650
 He     1.0238532017    -3.7294745002    -4.5675459641
