          4
Energy: -6.642576586262704E-4 Kcal/mole
 He     2.3234629232    -3.1585933464     4.3578713091
 He    -0.5111484787     1.2679234223    -6.2305369801
 He    -5.1264714528    -4.0673251791     7.4437540315
 He     2.1449536132     5.6601570071    -3.4763508406
          4
Energy: -0.008525403378828908 Kcal/mole
 He    -3.3656516708    -2.6526312127     1.0840556859
 He    -3.7496938077     6.5352526535    -3.8926890956
 He    -0.1049867404     6.8864884057    -3.4272855023
 He     5.5218639901     5.7920275505    -2.9098630389
          4
Energy: -6.145589038752123E-5 Kcal/mole
 He    -1.7103114394     6.2797840295    -6.3751505121
 He    -6.5296980952    -5.4277436536    -5.2360869484
 He     6.4734937053    -5.4130964319    -3.2633718961
 He     3.7451932226    -3.3679247074     4.9230580148
          4
Energy: -0.017810893704215187 Kcal/mole
 He     6.1426026426     4.7399329126    -3.0281552422
 He    -0.3350917228    -3.5085840235     2.6518230386
 He     2.3364135605    -3.2241070461     1.1657514383
 He    -7.1720129345    -7.2854770460    -7.0647733494
          4
Energy: -0.0016668895815031576 Kcal/mole
 He     2.0870613421    -2.8313951937    -1.9420565851
 He    -3.3560364133    -5.1480442175    -0.3672047532
 He    -7.2335175812     4.0357957520    -2.7214335074
 He    -2.5239500434     1.4084931153    -0.7672601587
          4
Energy: -0.0020149946567216527 Kcal/mole
 He    -3.6168218619    -5.8341935251    -5.9151377882
 He    -3.8971478693    -5.2156157912     2.7991152898
 He     0.5373169669    -3.5560780587     3.0021838022
 He    -6.0673493406     5.5634254776     4.5999602652
          4
Energy: -0.024716314797500933 Kcal/mole
 He     5.7539504758     4.1949299747    -6.7524904045
 He     6.5748188925     2.5744005923    -2.5631292220
 He     3.9126789810    -0.1127196362    -7.1013535844
 He     6.2545519782    -1.9640664974    -7.1639343719
          4
Energy: -0.0028934999254288233 Kcal/mole
 He     2.9601682794    -4.7183442423    -6.3868925450
 He     3.1215868972    -2.1296824098    -2.7987076661
 He    -6.8293815449     4.0108460388     4.9229344967
 He     4.7615379473     6.8398612482     0.1283890526
          4
Energy: -2.106211857980746E-4 Kcal/mole
 He    -4.8299664274     3.1447595223    -2.5260061710
 He     4.0660815053    -4.5098330591    -5.4417863482
 He     2.7729884155     5.3711436033    -2.2400772103
 He     0.5203619188     0.0476164395     4.3164006056
          4
Energy: -0.11997479610082162 Kcal/mole
 He    -0.6734544329     1.4281796123     0.2143914595
 He     0.7602705476    -0.7871222021    -0.9055641718
 He     2.0563086936     1.7488983150    -0.5527566606
 He     1.3935562261     0.1492304739     1.7373924018
