          10
Energy: -34.320570930225756 Kcal/mole
 H      0.3759511618     0.2038900281     1.3557823166
 F      0.6438399358    -0.6292621772     1.6296107440
 H     -2.5512353205     0.0284505660    -0.4396342313
 F     -2.2818064350     0.8943582455    -0.5756524886
 H     -1.0410257308     1.4732987163     0.3984728907
 F     -0.3667864318     1.6365796022     0.9981642446
 H     -2.3107049123    -1.7986069760     0.7632149099
 F     -2.7060706455    -1.6053461163    -0.0412881523
 H     -0.7157342396    -1.4496376654     2.1090643711
 F     -1.5315393820    -1.8520362887     2.2249363596
          10
Energy: -34.409305694339906 Kcal/mole
 H      0.3760361418     0.2488723258     1.0467148633
 F      0.6491859828    -0.6172980626     1.1733127411
 H     -2.7957013533     0.0479498957    -0.2148867452
 F     -2.6061910523     0.9276819193    -0.3910866672
 H     -1.2135195496     1.4980152068     0.3403273564
 F     -0.4492591945     1.6513719997     0.8233147307
 H     -2.4264202801    -1.7459050451     0.8665622466
 F     -2.9248627388    -1.5595075137     0.1197690519
 H     -0.6128458043    -1.4216330250     1.8899241283
 F     -1.4203934813    -1.7497678637     2.1746753829
          10
Energy: -34.24363405993893 Kcal/mole
 H      0.4068473713     0.2762765602     1.1399659829
 F      0.6729681739    -0.5586863933     1.4099763250
 H     -2.7069557812     0.0245321225    -0.2672696332
 F     -2.5305144934     0.8960720254    -0.4912688958
 H     -1.2089834980     1.4821175013     0.3003801120
 F     -0.4414726179     1.6921885061     0.7561061502
 H     -2.3669250547    -1.8212065582     0.8614650177
 F     -2.7925354290    -1.6096974793     0.0772401017
 H     -0.6215261669    -1.4920752955     1.9934276707
 F     -1.4167178943    -1.9072916336     2.1835710621
          10
Energy: -34.2176549494811 Kcal/mole
 H      0.4261627477     0.3584254464     1.1793786510
 F      0.6786378679    -0.5101850572     1.3299147159
 H     -2.6550233285    -0.0462904773    -0.2823698370
 F     -2.4665564317     0.8409811804    -0.4169738277
 H     -1.1424874502     1.5629659747     0.4317184104
 F     -0.3996957794     1.7906003634     0.9188858547
 H     -2.4079227968    -1.7602084480     0.9606651801
 F     -2.7970954452    -1.6467326106     0.1381344001
 H     -0.5607226194    -1.4111956540     2.0479131611
 F     -1.3830206023    -1.7479695825     2.2744045481
          10
Energy: -34.49083788986471 Kcal/mole
 H      0.3877832845     0.3107241988     1.1707850368
 F      0.7040326238    -0.5319466917     1.3462305435
 H     -2.7676338194     0.0567500181    -0.2487403568
 F     -2.6113659214     0.9526317812    -0.3664909858
 H     -1.2360225095     1.5309331243     0.3882705065
 F     -0.4678952253     1.6988935457     0.8601378311
 H     -2.3604205484    -1.7658272677     0.9167101155
 F     -2.8190579397    -1.5838868559     0.1437687012
 H     -0.5573620643    -1.4315766876     1.9834674475
 F     -1.3565776685    -1.8132426413     2.2211111260
          10
Energy: -34.39096378229294 Kcal/mole
 H      0.4284153993     0.2963116183     1.1899265024
 F      0.7390176858    -0.5414080031     1.3964236101
 H     -2.7367650779     0.0118867473    -0.3063474592
 F     -2.6408788273     0.9129826653    -0.4467788428
 H     -1.2446072605     1.4742718845     0.2688882362
 F     -0.4819127457     1.6426836866     0.7493292232
 H     -2.3450754401    -1.7189092976     0.9239430860
 F     -2.7583804345    -1.5762682011     0.1178900486
 H     -0.5751228924    -1.3595007286     1.9893521263
 F     -1.3802738401    -1.7200742262     2.2395674422
          10
Energy: -34.40470473658743 Kcal/mole
 H      0.3860854837     0.3011749590     1.2395186013
 F      0.7222173679    -0.5211158100     1.4669878251
 H     -2.9007353567     0.0432056945    -0.1741710666
 F     -2.8464983780     0.9491136682    -0.3056172277
 H     -1.3931059000     1.4464367288     0.3750945502
 F     -0.5951935346     1.6181164434     0.7931267652
 H     -2.3468558953    -1.7286860523     0.9603771856
 F     -2.8012293999    -1.5700781573     0.1798150459
 H     -0.5438278598    -1.3905923178     2.0690178610
 F     -1.3458993171    -1.7823216204     2.2790619776
          10
Energy: -34.42098608933367 Kcal/mole
 H      0.3724729733     0.2824800061     1.1973971450
 F      0.7229394801    -0.5201240859     1.4692222710
 H     -2.9129690335     0.0381520681    -0.2239395920
 F     -2.8289141693     0.9453361137    -0.3280591737
 H     -1.3907377285     1.4379298646     0.3738416454
 F     -0.5965354404     1.6038158999     0.8011747109
 H     -2.3520176958    -1.7383385634     0.9577682930
 F     -2.7799248632    -1.5817408071     0.1619909380
 H     -0.5559312871    -1.3900625800     2.0790018234
 F     -1.3656640598    -1.7578204825     2.3025548640
          10
Energy: -34.45909586964129 Kcal/mole
 H      0.3550354162     0.3075416099     1.1842109152
 F      0.6946718862    -0.5108241330     1.4204598920
 H     -2.9076318419     0.0505234309    -0.2272381995
 F     -2.8149672518     0.9526762080    -0.3629682275
 H     -1.3763883732     1.4782973630     0.3349096042
 F     -0.5855891553     1.6320115298     0.7729707322
 H     -2.3428469218    -1.7387683712     0.9526794811
 F     -2.7804113516    -1.5817180068     0.1622608877
 H     -0.5653121297    -1.3793866253     2.0636190219
 F     -1.3651664278    -1.7583868173     2.3033708860
          10
Energy: -34.49005658662003 Kcal/mole
 H      0.3393957101     0.3013124147     1.1857538923
 F      0.6955015364    -0.5104936886     1.4203780406
 H     -2.8926235752     0.0566862785    -0.2047496105
 F     -2.8130730761     0.9630216696    -0.3192785455
 H     -1.3864292291     1.4724817343     0.3557606956
 F     -0.5850565111     1.6323200355     0.7718646300
 H     -2.3320950626    -1.7359920316     0.9471767320
 F     -2.7809817129    -1.5818652852     0.1625527958
 H     -0.5646357378    -1.3792502256     2.0661058317
 F     -1.3652023088    -1.7583940530     2.3032389665
