          10
Energy: -34.5236495892365 Kcal/mole
 H     -0.0847715331     0.6509488518     1.7165173445
 F     -0.1715903163     0.1071447311     2.4497489431
 H     -1.3628061829    -0.9437281305    -1.0834833483
 F     -1.2666550195    -0.0977577085    -1.4240387753
 H     -0.4394069806     0.9359272258    -0.4209849174
 F      0.0227038423     1.3987762411     0.2217540470
 H     -0.7893727308    -2.4578580221     0.4031417170
 F     -1.4132673954    -2.4079556538    -0.2670479585
 H      0.2057961944    -1.4442350345     2.0043847228
 F      0.3460499027    -2.2577192876     1.6050587065
