          10
Energy: -34.092538024410715 Kcal/mole
 H     -0.4378438491     0.4331706688     1.8517500075
 F     -0.4926710858    -0.1952917635     2.5172708151
 H     -1.5768891245    -0.9498377762    -1.2143603148
 F     -1.7481817377    -0.0623023826    -1.3687260029
 H     -0.9848746297     0.8076888159    -0.1730181338
 F     -0.5037196573     1.2706053809     0.4555414467
 H     -0.7307236187    -2.6036483419    -0.0016299463
 F     -1.2251223942    -2.5502255527    -0.7720875093
 H      0.0148967411    -1.6763417403     1.8865058718
 F      0.1834809087    -2.4273981537     1.3881258538
          10
Energy: -34.16478088949998 Kcal/mole
 H     -0.4965456551     0.1074579853     2.0327898941
 F     -0.5829015603    -0.4949838102     2.7187166692
 H     -1.4120496188    -1.1706423229    -1.2688032854
 F     -1.7488969102    -0.3178190128    -1.2795412559
 H     -0.9697999927     0.6024440505    -0.1249798897
 F     -0.4489599297     0.9350236885     0.5525194927
 H     -0.5396809545    -2.7851373144     0.1131336090
 F     -0.6288822145    -2.6545898168    -0.7901324017
 H     -0.4099533943    -2.0794877134     2.2261149779
 F     -0.3172397437    -2.8866829165     1.8009925448
          10
Energy: -34.25544340682896 Kcal/mole
 H      0.0316761120    -0.0473402098     2.0318240386
 F     -0.0280361416    -0.6568075569     2.7143729377
 H     -1.4355439521    -1.0462858279    -0.9377475995
 F     -1.6563038420    -0.1575884740    -0.8890538194
 H     -0.6319827428     0.6565638163     0.0775517634
 F     -0.0130651134     0.9462455368     0.6890372242
 H     -0.9659694429    -2.8867320668     0.1154734488
 F     -0.9647313170    -2.6205646346    -0.7620471293
 H     -0.5900341676    -2.1233656472     2.1421737273
 F     -0.9287887704    -2.8950545861     1.7807453103
          10
Energy: -34.27405303848701 Kcal/mole
 H      0.0652519051     0.0045530210     1.8794578901
 F      0.0452977153    -0.6600439942     2.5109653228
 H     -1.3525891026    -1.0546081825    -1.1392615246
 F     -1.4998368469    -0.1502881009    -1.1768419953
 H     -0.5409077204     0.6350974390    -0.0781929571
 F     -0.0586148411     1.0122002602     0.6045046632
 H     -1.1577956334    -2.6751579693     0.1455088360
 F     -0.9793564443    -2.6027324194    -0.7510417736
 H     -0.9803024144    -1.8877921789     2.1068892035
 F     -1.4573332672    -2.5826940016     1.7457216215
          10
Energy: -34.39103953427889 Kcal/mole
 H      0.3168085157     0.0525680979     1.6922003649
 F      0.4617994740    -0.6867126965     2.2150105878
 H     -1.3679656918    -0.8628630059    -1.1700763314
 F     -1.4762149004     0.0453026175    -1.2364563690
 H     -0.6133625210     0.8821138956    -0.1052540048
 F     -0.1116705675     1.2114733644     0.5880832321
 H     -1.2984133017    -2.4802506994     0.1451252352
 F     -1.0741539526    -2.4486829720    -0.7434692858
 H     -0.9109225777    -1.6579644978     2.0336073358
 F     -1.6418236403    -2.1228994668     1.7327616756
          10
Energy: -34.44562984066002 Kcal/mole
 H      0.3292095987     0.0395456639     1.7428280637
 F      0.4886498137    -0.7202271424     2.2308988586
 H     -1.2833459469    -0.8943135051    -1.1961519888
 F     -1.3622601948     0.0147229574    -1.2873345055
 H     -0.5921112674     0.8856619675    -0.0937929056
 F     -0.1688515979     1.2406217195     0.6381523291
 H     -1.3501992054    -2.4966782610     0.1981775157
 F     -1.1444675409    -2.4675094785    -0.6949701005
 H     -0.8202630703    -1.7585034021     2.0741192961
 F     -1.5591258944    -2.2385502075     1.8201000214
          10
Energy: -34.45609299653793 Kcal/mole
 H      0.2921788712     0.0656861350     1.7460940600
 F      0.5693244978    -0.6974416384     2.1723748398
 H     -1.5022673474    -0.7839408365    -1.1117158055
 F     -1.5475155705     0.1254629086    -1.2204651813
 H     -0.8315151316     0.9787271556     0.0463680587
 F     -0.3791577698     1.2850244407     0.7828758933
 H     -1.3594134629    -2.5010586326     0.2076092036
 F     -1.3089719765    -2.3948022972    -0.7018160257
 H     -0.6596783540    -1.7993218932     2.0511771702
 F     -1.3615387582    -2.3571358981     1.8584999559
          10
Energy: -34.500461500351605 Kcal/mole
 H      0.2458553085     0.0690454984     1.7749008460
 F      0.5329085167    -0.6848318711     2.2109723625
 H     -1.4862375640    -0.7981680047    -1.1045231730
 F     -1.5532380915     0.1139972470    -1.1705116793
 H     -0.8486553929     0.9393838587     0.1079613664
 F     -0.4494120424     1.2686790578     0.8649675875
 H     -1.3918683290    -2.5191422664     0.2158607275
 F     -1.3271826014    -2.4226593797    -0.6937522722
 H     -0.6703201852    -1.8266701370     2.1141304615
 F     -1.3555697199    -2.3936076697     1.8907386326
          10
Energy: -34.46163916409043 Kcal/mole
 H      0.2326961812     0.0638281776     1.8164289847
 F      0.4942705214    -0.7006823444     2.2500088809
 H     -1.4795931669    -0.7956031069    -1.0511561755
 F     -1.5360262812     0.1133171061    -1.1587124398
 H     -0.8757264365     0.9405982887     0.1212330832
 F     -0.4745615740     1.2732771902     0.8757398768
 H     -1.3901032629    -2.5245338478     0.2153956059
 F     -1.3272762341    -2.4223733687    -0.6937275986
 H     -0.6906542770    -1.8220544780     2.1078709012
 F     -1.3773278590    -2.3874540410     1.8849544912
          10
Energy: -34.525100763628245 Kcal/mole
 H      0.2480953280     0.0525582393     1.7797664017
 F      0.5381978451    -0.7105683460     2.1973395623
 H     -1.4961498777    -0.8106540316    -1.0885849645
 F     -1.5420924698     0.1018973996    -1.1662262147
 H     -0.8490620452     0.9281459040     0.1186507500
 F     -0.4555555686     1.2544084296     0.8799617359
 H     -1.3844505212    -2.5192810087     0.2163415218
 F     -1.3275760990    -2.4226520197    -0.6937777772
 H     -0.6735947986    -1.8419135050     2.1040370423
 F     -1.3782328249    -2.3864005656     1.8851578685
