          10
Energy: -2.4101310220197263 Kcal/mole
 H      0.0296016058     1.3865957484     2.7899944879
 F      0.9466016058     1.3865957484     2.7899944879
 H      2.2707175789    -2.9117692958     0.6012603519
 F      3.1877175789    -2.9117692958     0.6012603519
 H     -0.8349728182     1.4962216720    -0.6090400134
 F     -0.1188677033     0.9234368394    -0.6090400134
 H     -2.3672889218    -2.9051823778    -1.2780789695
 F     -1.4502889218    -2.9051823778    -1.2780789695
 H      0.7407923156    -1.7247521412     2.4940003169
 F      0.3694934471    -2.5632186881     2.4940003169
