          10
Energy: -34.51646919000228 Kcal/mole
 H      0.4274808858     0.2223499184     1.6036270098
 F      0.5734571154    -0.6024704223     1.9767909765
 H     -2.1446335743    -0.0620225765    -0.7013546022
 F     -1.8619117899     0.7955109342    -0.8613348222
 H     -0.6968366930     1.3979757508     0.1867751493
 F     -0.0714972700     1.6001566428     0.8262769030
 H     -2.2941992917    -1.7472507270     0.6618770009
 F     -2.5176808064    -1.6090281550    -0.2166669839
 H     -0.8699175389    -1.4082757589     2.2260956334
 F     -1.7132864058    -1.7682708515     2.2214601506
