          10
Energy: -33.95403156838225 Kcal/mole
 H      0.3166231673     1.1629394634     1.6593477878
 F      0.3872950789     0.7061706222     2.4513431834
 H     -1.0887448815    -1.1221212651    -0.7961282867
 F     -0.6966321935    -0.5408499939    -1.3871108154
 H     -0.2610865055     0.7693828465    -0.5366917055
 F      0.0105117987     1.4899191410    -0.0387451125
 H     -0.9871826460    -2.0012422284     1.2032543989
 F     -1.6049413108    -2.0022982610     0.5255655935
 H      0.4017323959    -0.9585078384     2.3291612793
 F      0.2966302652    -1.8630220519     2.2210105519
          10
Energy: -34.107417138128056 Kcal/mole
 H     -0.3851460751     0.8796418605     1.5007886906
 F     -0.1469026695     0.4173825463     2.2560670539
 H     -1.2198898850    -1.3020022801    -1.0427069048
 F     -0.9577441409    -0.5727373418    -1.5329530253
 H     -0.8008824255     0.8643449807    -0.6124774371
 F     -0.6753645937     1.5399418904    -0.0052681737
 H     -0.8783717088    -2.5337160844     0.7110348404
 F     -1.4986814088    -2.5949727877     0.0384632885
 H      0.2333850258    -1.2600278733     2.0423240604
 F      0.3598984104    -2.1397384450     1.8165084863
          10
Energy: -34.115296735226366 Kcal/mole
 H     -0.6876709064     0.7288978404     1.7393935558
 F     -0.4986383276     0.2109121195     2.4720916363
 H     -0.6928547539    -1.3948136092    -1.3267207606
 F     -0.4193963071    -0.5648562026    -1.6047138920
 H     -0.8247068611     0.6504499766    -0.5352863139
 F     -1.0117767085     1.2483847686     0.1343164464
 H     -0.4570207031    -2.6469980367     0.4043296607
 F     -0.9417661920    -2.7583964641    -0.3660606309
 H      0.0520268798    -1.3713706745     2.1133439516
 F      0.3346498646    -2.1913223369     1.8155310576
          10
Energy: -34.20078052802711 Kcal/mole
 H     -0.7384454357     0.5021222987     1.7822887879
 F     -0.5478047359    -0.0721209327     2.4713387387
 H     -0.7031744496    -0.9785067389    -1.3742014726
 F     -0.5065840347    -0.1443055676    -1.7003143587
 H     -0.8353288697     0.8980388994    -0.4131989686
 F     -0.9808865025     1.3484058214     0.3722127776
 H     -0.7602482261    -2.4958822430     0.2511985764
 F     -1.2201919720    -2.3440511733    -0.5274464499
 H     -4.643557E-40    -1.5790206115     2.0520033228
 F      0.1951967640    -2.3941178687     1.6802208762
          10
Energy: -34.153627195655986 Kcal/mole
 H     -0.5226272312     0.5944312307     1.8578058081
 F     -0.5956216808     0.0563533776     2.5967462889
 H     -0.5003218701    -1.1024133034    -1.2968823924
 F     -0.2831480699    -0.2542486825    -1.5695384330
 H     -0.3902776949     0.8044941182    -0.3435701349
 F     -0.4791524316     1.3357676430     0.3985475936
 H     -0.5815038875    -2.5870834028     0.2450067146
 F     -0.9727265910    -2.5614828891    -0.5839555342
 H     -0.0080902668    -1.4292118006     2.1008334420
 F      0.3050587521    -2.1678021654     1.6566364531
          10
Energy: -34.37689554821824 Kcal/mole
 H     -0.6656268587     0.5966200908     1.7729989422
 F     -0.6940356585    -0.0127806180     2.4576249104
 H     -1.2709500417    -1.0877810982    -1.2443700673
 F     -1.1892679733    -0.2370578204    -1.5767658319
 H     -0.7747820369     0.8732580328    -0.4034634978
 F     -0.4831131147     1.3663793447     0.3125320410
 H     -0.6988920523    -2.4933061552     0.3512429968
 F     -1.2918631850    -2.4838842984    -0.3481749501
 H      0.0197985716    -1.4602191137     2.0110082391
 F      0.3403441103    -2.2121340844     1.5953600293
          10
Energy: -34.43213359930712 Kcal/mole
 H     -0.2348415568     0.7033085350     1.7305802771
 F     -0.3040531337     0.1030310973     2.4203380283
 H     -1.3641633698    -1.0127100258    -1.1024921694
 F     -1.2787747086    -0.1756514196    -1.4670887496
 H     -0.5751870636     0.9525125832    -0.4133894199
 F     -0.1489263704     1.4604387418     0.2200155365
 H     -0.7468375233    -2.4706838864     0.4104601889
 F     -1.4191407835    -2.4312094248    -0.2119055342
 H      0.2289026469    -1.4003912537     1.9511040935
 F      0.4341178904    -2.2080330150     1.5683633337
          10
Energy: -34.48019447196657 Kcal/mole
 H     -0.1061456721     0.6562144685     1.7182418972
 F     -0.1704564676     0.1068654023     2.4496574596
 H     -1.3688526567    -0.9600200446    -1.0693610873
 F     -1.2796626129    -0.1173060739    -1.4197427358
 H     -0.4512763223     0.9333532193    -0.4157900540
 F      0.0034665573     1.4053147740     0.2255758356
 H     -0.8124669439    -2.4319637791     0.3895030509
 F     -1.4515276667    -2.4114400210    -0.2678166338
 H      0.2219979716    -1.4556899342     1.9974284958
 F      0.3479241087    -2.2462500393     1.5501631068
          10
Energy: -34.444220727271045 Kcal/mole
 H     -0.0703136468     0.6474146564     1.7157675653
 F     -0.1723572738     0.1073322120     2.4497887172
 H     -1.3391438673    -0.9751260512    -1.0909559558
 F     -1.2698856995    -0.1322791205    -1.4454998286
 H     -0.4393687986     0.9493494618    -0.4353629390
 F      0.0028348907     1.4044662103     0.2266141319
 H     -0.7733990556    -2.4383767183     0.3890678018
 F     -1.4141147619    -2.4089890920    -0.2663013699
 H      0.1863502578    -1.4617581242     2.0313870107
 F      0.3470814647    -2.2567897282     1.6036262975
          10
Energy: -34.5236495892365 Kcal/mole
 H     -0.0847715331     0.6509488518     1.7165173445
 F     -0.1715903163     0.1071447311     2.4497489431
 H     -1.3628061829    -0.9437281305    -1.0834833483
 F     -1.2666550195    -0.0977577085    -1.4240387753
 H     -0.4394069806     0.9359272258    -0.4209849174
 F      0.0227038423     1.3987762411     0.2217540470
 H     -0.7893727308    -2.4578580221     0.4031417170
 F     -1.4132673954    -2.4079556538    -0.2670479585
 H      0.2057961944    -1.4442350345     2.0043847228
 F      0.3460499027    -2.2577192876     1.6050587065
