          10
Energy: -34.525100763628245 Kcal/mole
 H      0.2480953280     0.0525582393     1.7797664017
 F      0.5381978451    -0.7105683460     2.1973395623
 H     -1.4961498777    -0.8106540316    -1.0885849645
 F     -1.5420924698     0.1018973996    -1.1662262147
 H     -0.8490620452     0.9281459040     0.1186507500
 F     -0.4555555686     1.2544084296     0.8799617359
 H     -1.3844505212    -2.5192810087     0.2163415218
 F     -1.3275760990    -2.4226520197    -0.6937777772
 H     -0.6735947986    -1.8419135050     2.1040370423
 F     -1.3782328249    -2.3864005656     1.8851578685
