          10
Energy: -34.49005658662003 Kcal/mole
 H      0.3393957101     0.3013124147     1.1857538923
 F      0.6955015364    -0.5104936886     1.4203780406
 H     -2.8926235752     0.0566862785    -0.2047496105
 F     -2.8130730761     0.9630216696    -0.3192785455
 H     -1.3864292291     1.4724817343     0.3557606956
 F     -0.5850565111     1.6323200355     0.7718646300
 H     -2.3320950626    -1.7359920316     0.9471767320
 F     -2.7809817129    -1.5818652852     0.1625527958
 H     -0.5646357378    -1.3792502256     2.0661058317
 F     -1.3652023088    -1.7583940530     2.3032389665
