          5
Energy: -0.17112868724286234 Kcal/mole
 Xe    -2.5260138404    -8.1807281026    -1.9339093139
 Xe     0.7796149295     1.0856683339    -1.3733835270
 Xe    -5.0979622707     4.5503135393     4.0159444656
 Xe     3.4278520413    -8.2228854041     0.2465967709
 Xe     7.7385005497    -6.9008012885     5.8675874157
          5
Energy: -1.566472409741459 Kcal/mole
 Xe    -9.7584384940    -8.1793815312     1.4395212050
 Xe    -0.8528471711     9.6510765126     8.7873489351
 Xe     3.7217733452     9.8957778209     0.9110153123
 Xe     4.3320042447     8.9969465276     6.6017043789
 Xe     0.7272514725     9.6976042824     4.3096418013
          5
Energy: -1.7308839077573268 Kcal/mole
 Xe    -9.2962646608     2.8244295641    -2.1765854997
 Xe    -4.2997710359     7.0871932090    -0.3763341318
 Xe     3.2101831690     5.2374056961    -3.3398563182
 Xe    -6.8704185149     3.5897668320     1.9267519469
 Xe    -7.7563122723     6.9195605962    -3.3228010613
          5
Energy: -2.0542596991734614 Kcal/mole
 Xe    -0.8948670828     4.0228291071    -0.3163000913
 Xe    -4.6219393949     1.2257056594    -2.9738746974
 Xe    -1.6739757929     3.5904721507    -5.0276481965
 Xe    -4.7730123410     6.1463399837    -2.4509193807
 Xe     9.4480980345    -3.7528797841     4.5933010142
          5
Energy: -1.8187560910185177 Kcal/mole
 Xe    -7.4549976652     0.8974061444     2.3372861493
 Xe     3.3436676247    -1.3166709426     1.9235117180
 Xe    -9.2960322060    -2.7844618208     0.6310127325
 Xe    -4.3399022684     3.5489996234    -0.7903175977
 Xe    -8.2156053564     0.5081768480    -1.7717910070
          5
Energy: -2.9182107271154587 Kcal/mole
 Xe     2.4419715788    -4.1831458110     0.2516302585
 Xe    -3.7071859496    -4.7685530663     0.8833729802
 Xe    -0.7437128269    -1.7135767486    -1.1710591924
 Xe    -0.2337561557    -6.4716677529    -2.4492460516
 Xe     0.9458583516    -3.2269879324    -4.6864840612
          5
Energy: -3.1941468976782583 Kcal/mole
 Xe    -0.3182425040    -8.5871627673     4.3153873820
 Xe    -0.8149193380    -1.2312471374     4.6308018944
 Xe     1.4634407386    -5.0218721243     4.5988393369
 Xe    -2.9470211270    -5.3211781039     3.9459906160
 Xe    -0.0661251059    -3.5166258794     0.7927253164
          5
Energy: -3.536969539399649 Kcal/mole
 Xe    -5.1658716046    -8.0504121610     0.9788945096
 Xe    -3.3545194701    -2.3213815340    -3.1904697542
 Xe    -5.8090973511    -6.7522380493    -3.1621165340
 Xe    -1.5360802944    -5.9702947203    -0.6943573701
 Xe    -5.2217948621    -3.7686164873     0.2822330485
          5
Energy: -3.843171348993789 Kcal/mole
 Xe    -2.6642220949    -7.0465896619    -1.3360647051
 Xe     0.1060690452    -0.5215169815    -3.3846055237
 Xe    -1.3241112156    -4.3762945250    -4.6165386686
 Xe     0.6220926800    -4.2572098240    -0.7396770027
 Xe    -3.2885763119    -2.4386047471    -1.1123166540
          5
Energy: -3.9412100186232375 Kcal/mole
 Xe    -3.0740311310    -6.7618385008    -1.3086584514
 Xe     0.1811784814    -0.6466018473    -3.1858710003
 Xe    -1.3300140140    -4.5076212751    -4.6817579170
 Xe     0.5009284721    -4.2404073177    -0.6613051388
 Xe    -3.4526860587    -2.3748139294    -1.4128496872
