          5
Energy: -0.10670682251731098 Kcal/mole
 Xe    -4.0377652970    -0.5466637179    -3.8337151341
 Xe    -2.7305649101     0.6690866395     3.8394506617
 Xe     6.6127670463     5.7643969954    -2.4588040598
 Xe     2.1579193116    -5.7506320724     4.6515404183
 Xe     3.3224968867    -3.8907439936    -3.4413646463
