          5
Energy: -2.784966039389417 Kcal/mole
 Xe     1.0889738132     4.1042952502    -6.1097021046
 Xe    -2.5885379925     2.1544055922    -3.6741716697
 Xe    -7.4468695105     3.4668837784    -3.8269195901
 Xe    -5.3255926545     2.3075440446    -8.0919933344
 Xe    -4.2991574388     5.7289455997    -5.7175739047
          5
Energy: -2.307752587263715 Kcal/mole
 Xe    -4.3483178010     9.0487579541    -4.8351021108
 Xe    -7.2438770396     8.3388916714    -7.5020510553
 Xe    -9.0238292516     4.5949096534    -8.7920216505
 Xe    -8.5172185653     3.9854732741    -4.0819051286
 Xe    -5.2681124539     2.9821786823    -7.1999882755
          5
Energy: -2.9989655288399892 Kcal/mole
 Xe    -3.6257997870    -1.8598883454    -1.3474059381
 Xe    -7.8591859872    -1.7261514923    -3.2032058405
 Xe    -3.0837600941    -0.9362758857    -5.4097854298
 Xe    -0.8585558918     1.8386996646    -2.0410476348
 Xe    -6.2085518752     2.0953913216    -2.7765415380
          5
Energy: -2.936475208927354 Kcal/mole
 Xe    -7.5961871025     0.7139130835     3.2719751846
 Xe    -3.4745450614    -0.9507883689     1.9069601866
 Xe    -7.4621961208    -3.2728611737     2.5906100141
 Xe    -8.3599629849     2.3229001320    -1.2876625366
 Xe    -6.1350596587    -1.8497368857    -1.3327346354
          5
Energy: -3.601614257677599 Kcal/mole
 Xe    -2.3893456914     1.8322543208    -3.3834248893
 Xe    -4.1011814476    -2.2875129377    -3.2566767496
 Xe    -6.8368515271     0.7894339138    -4.5599514079
 Xe    -3.2251312314    -0.3919204483    -7.0018160531
 Xe    -7.4828120481    -2.5717928086    -7.0966349710
          5
Energy: -3.4334966703940824 Kcal/mole
 Xe    -3.0291389302     0.0447576266    -7.5775033981
 Xe    -4.8353668002    -4.5773344402    -8.8220858339
 Xe    -1.6541108911    -3.7716667953    -5.8640231548
 Xe    -6.3848750992    -2.5635848531    -5.5553097471
 Xe    -4.9389790209    -7.0619625241    -5.3680265486
          5
Energy: -3.720826040423763 Kcal/mole
 Xe    -5.2674544090     2.6328442442    -4.9755318637
 Xe    -5.9857779016    -1.3585926406    -5.8788558676
 Xe    -5.0063233682    -0.6381381227    -1.6110256229
 Xe    -9.0129629488     0.7526138866    -3.2418842892
 Xe    -8.1688688062    -3.3339169581    -2.4750451316
          5
Energy: -3.7907547940406756 Kcal/mole
 Xe    -4.3911287670     4.7740206985    -3.5163608858
 Xe    -2.0412621142     2.2410637174    -6.1405983125
 Xe    -2.9040993466     0.8951694791    -2.0416426566
 Xe    -6.1622038798     1.2655168415    -5.4129072227
 Xe    -3.1471473250    -1.7761637672    -5.2704379363
          5
Energy: -3.87074578083897 Kcal/mole
 Xe    -0.9036921620     7.1879665419    -2.4409600027
 Xe    -0.5123157776     5.3300742956    -6.4540928963
 Xe    -3.7175133191     4.1494375121    -3.6870328893
 Xe    -3.6680215249     8.1254922873    -5.7683171518
 Xe    -4.3838444974     4.1445918837    -7.9575907936
          5
Energy: -3.941543266263998 Kcal/mole
 Xe    -0.8899482979     7.3127488559    -2.5677791179
 Xe    -0.4524422312     5.0567019855    -6.3335200189
 Xe    -3.8481447667     4.2178703662    -3.6221713752
 Xe    -3.7015106881     8.0181597405    -5.8649663506
 Xe    -4.4524175616     4.2187242367    -7.9791776746
