          5
Energy: -0.4906372433215298 Kcal/mole
 Xe     1.6495811999     9.5211356633     3.7145627882
 Xe     8.9101767522     2.0775660224    -6.3219131522
 Xe    -8.1103618452     3.3881364125    -2.8349890027
 Xe    -0.3994960726     9.8026628760    -0.2565134961
 Xe     2.5051649441     1.6533002125    -9.3872206039
          5
Energy: -0.5231984960357097 Kcal/mole
 Xe     0.3728496791    -8.0728373427    -8.8179540208
 Xe     8.6371533626    -1.8641135289    -6.0139125715
 Xe     4.7212370148     3.8139277838     1.9739622953
 Xe     5.8221580721    -4.8316504158    -5.2171429744
 Xe     1.7998085373     0.8376480482    -6.1926102321
          5
Energy: -0.35717825025261746 Kcal/mole
 Xe     1.7931005239    -6.5716078842    -6.8720228012
 Xe    -7.9048135382    -6.1202197017    -2.4794826917
 Xe    -7.8581330024     7.9608589976     5.8127637682
 Xe     8.4565904351    -0.2272026880    -1.9883401885
 Xe     7.8760424327    -3.8821388466    -5.5271520410
          5
Energy: -0.3695691128163255 Kcal/mole
 Xe    -5.2345150099    -9.5619008445     9.3687192053
 Xe    -8.8669279077     4.4961123027     5.8204610398
 Xe     0.2202446186    -8.4102801860    -2.8735489840
 Xe    -7.1035034906     1.5685873718     2.4160005621
 Xe     2.5098014329     2.7978573212    -4.5042466387
          5
Energy: -1.2089077803838901 Kcal/mole
 Xe     4.7995247178     3.9522223639    -0.1475738132
 Xe     9.0260942373     3.1832358708    -2.6422853733
 Xe     6.1389963400     5.9440789737    -4.1800551595
 Xe    -0.2761989576    -6.2846117439     3.2335194762
 Xe    -5.7293603254    -4.9281818815    -0.2162333079
          5
Energy: -3.164680444071595 Kcal/mole
 Xe     7.6038953076    -1.0062070725    -5.8047845883
 Xe     3.8636551399    -3.5021635286    -7.2014781091
 Xe     7.4593020905    -5.8599493312    -6.8318132271
 Xe     3.4030217786    -0.1632533386    -4.3058888085
 Xe     6.0995812086    -4.9943278086    -2.9458089701
          5
Energy: -3.515302506808223 Kcal/mole
 Xe     9.8719798152    -0.4141931860    -3.1289581144
 Xe     7.7236237420     0.3395007835    -6.8361073630
 Xe     6.0436358989     1.4232981918    -2.9118960404
 Xe     8.3858660001    -4.2445403488    -6.9851740203
 Xe     6.1379226748    -2.8125091700    -3.7367058049
          5
Energy: -3.744059840193165 Kcal/mole
 Xe     0.8265740598    -1.5713788665    -0.8717159282
 Xe     5.0663381143    -3.7785179128    -0.4255720242
 Xe    -2.0527558471    -4.1766077569     1.3872509293
 Xe     1.9567811426    -4.1702381252     2.8388482331
 Xe     1.3096174451    -6.0927188578    -0.8663107151
          5
Energy: -3.5774192603942545 Kcal/mole
 Xe     2.0409300110    -2.3269970760    -0.4728018497
 Xe     3.2083183573    -5.6784087878     2.0513458611
 Xe     1.1840467329     1.6141995489     2.1654301790
 Xe     4.5725965121    -1.2077958644     3.3645809043
 Xe     0.6735726485    -2.4993893707     3.6242711764
          5
Energy: -3.941068071409978 Kcal/mole
 Xe     2.1460058515    -1.9237172297    -0.3489050515
 Xe     3.2743893725    -5.4973867033     1.9654861180
 Xe     1.4404645632     1.4118750694     2.4514138108
 Xe     4.5901066859    -1.5254266985     3.3171794791
 Xe     0.3187859581    -2.6696020451     3.5966237598
