          5
Energy: -3.941068071409978 Kcal/mole
 Xe     2.1460058515    -1.9237172297    -0.3489050515
 Xe     3.2743893725    -5.4973867033     1.9654861180
 Xe     1.4404645632     1.4118750694     2.4514138108
 Xe     4.5901066859    -1.5254266985     3.3171794791
 Xe     0.3187859581    -2.6696020451     3.5966237598
