          12
Energy: -33.35427670152643 Kcal/mole
 H      2.6194707732    -0.7801892433    -2.2416073648
 F      2.0058793962    -1.4422318976    -2.4031441903
 H      2.2115820521     1.1961404020    -2.4023263628
 F      3.0260206111     0.9036399833    -2.0989745231
 H     -0.2505885464    -0.2616225419     2.4380547370
 F      0.5879747725    -0.6303317618     2.4799363708
 H     -0.8560511596     1.4468945285     3.2399293886
 F     -1.4413493047     0.9422959429     2.7462742979
 H      1.0463252979     0.7243287795     3.6333744685
 F      0.7330309177     1.4815231692     4.0449474117
 H      0.7820227679    -0.1593693222    -2.8715246971
 F      0.5837055539     0.7292859024    -2.9803877964
          12
Energy: -33.72637850271333 Kcal/mole
 H      1.9520948950    -0.5106274971    -1.8344736044
 F      1.4114083156    -1.1619761668    -2.1870242154
 H      2.1269254459     1.2182704081    -2.5398324609
 F      2.6284512003     1.0349743422    -1.7943370083
 H      0.3250937413     0.2443808221     1.5107941891
 F      1.0960958722    -0.1926175083     1.7463301171
 H     -0.2373791528     1.7979343181     2.5112406649
 F     -0.7955126140     1.4838858743     1.8549254858
 H      1.4286927629     0.9492882316     3.0451024975
 F      1.1991551831     1.7143927708     3.4954540752
 H      0.9168659398    -0.0531369737    -3.4138611175
 F      0.9772792743     0.8016732192    -3.7402638796
          12
Energy: -41.49354661292827 Kcal/mole
 H      0.1259909954    -0.6469393266    -0.2230768820
 F     -0.2042420507    -0.6041933142    -1.0774818877
 H      1.8717006856     1.9790553789    -1.2366244083
 F      2.2229803487     2.3513840146    -0.4757939506
 H      0.3167610509     0.2874035341     1.6799284698
 F      0.7648701694    -0.3956936045     1.2634365526
 H     -0.3659419135     2.3521002473     1.7160564216
 F     -0.5094798805     1.5946953575     2.2126686295
 H      0.9205538174     3.2203306819     0.2070847979
 F      0.1334324086     3.4902858328     0.5923809234
 H      0.5957803758     0.5272291797    -2.1245457393
 F      1.0742983601     1.2202858505    -2.4872880580
          12
Energy: -41.60632338604853 Kcal/mole
 H      2.873931E-40    -0.6494377204    -0.0310855365
 F     -0.3348283127    -0.6521929508    -0.8846538539
 H      2.0156217811     1.8034848826    -1.1148966177
 F      2.2939401581     2.3608512211    -0.4420142760
 H      0.2617864327     0.2644038290     1.8509582571
 F      0.6112810585    -0.4986963676     1.4816066678
 H     -0.1579742203     2.4033926762     1.7930395393
 F     -0.3471035659     1.7108781395     2.3636030390
 H      0.9747994307     3.1572851148     0.1364807953
 F      0.1778924852     3.4451705880     0.4871234546
 H      0.7649136387     0.1969478369    -1.8421427629
 F      1.3602098456     0.7781568435    -2.2277688989
          12
Energy: -41.46426353122206 Kcal/mole
 H      0.3328165867    -1.0138327949     0.0459928099
 F      0.0587654733    -1.0958007542    -0.8252512666
 H      1.8289565375     1.7624878484    -1.1036495157
 F      2.1509576448     2.2174125411    -0.3754683495
 H      0.2216744246     0.2037621827     1.8585260089
 F      0.6928952978    -0.5414870954     1.6066462715
 H     -0.3115550999     2.4248212446     1.6962459488
 F     -0.5610580513     1.6901870018     2.1850708731
 H      0.9921386410     3.1793831209     0.2764636480
 F      0.2596064631     3.5788987372     0.6568225321
 H      0.6035672527     0.1538280772    -1.8904288425
 F      1.0389045468     0.8722454426    -2.2581881788
          12
Energy: -41.616695553608764 Kcal/mole
 H      0.2727533855    -0.9457147004     0.1346963426
 F      0.0011492100    -1.1394435343    -0.7194636604
 H      1.8299395269     1.6123944762    -1.1155917449
 F      2.0933200359     2.1142347918    -0.3947061749
 H      0.2252584637     0.2139059670     1.9205160311
 F      0.7391653937    -0.4976833035     1.6551306936
 H     -0.4027599900     2.2832227518     1.6076423241
 F     -0.7272797629     1.5861921212     2.1073664651
 H      0.9073062675     3.1092734257     0.1839728978
 F      0.1720836350     3.4642114562     0.6015320853
 H      0.7327941285    -0.0762675425    -1.7461601558
 F      1.1570442522     0.5864616754    -2.2170006981
          12
Energy: -41.70299002030481 Kcal/mole
 H      0.4474978895    -0.9894948450     0.1979880981
 F      0.2236503346    -1.1792363887    -0.6707923222
 H      1.9046895400     1.6760410716    -1.0966019925
 F      2.1865831935     2.1713421216    -0.3781997111
 H      0.3412856745     0.3341913401     1.9909756921
 F      0.8993809199    -0.3156799735     1.6637357606
 H     -0.4064598232     2.3394368930     1.7149306779
 F     -0.6013227840     1.6625037183     2.3020242850
 H      0.8622605783     3.0577128848     0.1575012649
 F      0.0803774321     3.3801760305     0.5118531597
 H      0.8989163306    -0.0643634905    -1.7243277294
 F      1.2954921007     0.6146760800    -2.1960500210
          12
Energy: -41.7537295015413 Kcal/mole
 H      0.5314725531    -0.9638470920     0.1852494647
 F      0.3479446534    -1.2105457272    -0.6786638952
 H      1.9051725479     1.6621612886    -1.0445949366
 F      2.1706679693     2.1765758611    -0.3334136455
 H      0.3173966078     0.3142031265     1.9532048333
 F      0.9073511676    -0.3236964023     1.6600720842
 H     -0.4488090892     2.2928376266     1.7885140368
 F     -0.6561721440     1.5874233154     2.3364923329
 H      0.8862499281     3.0473968394     0.2507104089
 F      0.1244176819     3.3920645922     0.6271473477
 H      0.9017475964    -0.0610234075    -1.7341854672
 F      1.2432901431     0.6667685685    -2.1752710921
          12
Energy: -41.77994683307125 Kcal/mole
 H      0.6352627416    -0.9430073678     0.2423318021
 F      0.4220345486    -1.1721780307    -0.6195867236
 H      1.9700430839     1.6920815318    -1.0877457227
 F      2.2088144682     2.1893326012    -0.3552031642
 H      0.3651102094     0.3648195320     2.0033054877
 F      0.9755324942    -0.2612523196     1.7270670566
 H     -0.4379155879     2.3132363620     1.7670907475
 F     -0.6618120767     1.6290048870     2.3350578688
 H      0.8872388632     3.0493478982     0.2536405679
 F      0.1127376856     3.3775185301     0.6187993857
 H      0.9843316150    -0.0391947718    -1.7297806896
 F      1.3216076483     0.6650376610    -2.2106034823
          12
Energy: -41.821481391433736 Kcal/mole
 H      0.6157905294    -0.9300991922     0.2433828266
 F      0.4230675045    -1.1728627796    -0.6196424780
 H      1.9403841696     1.7010214962    -1.0755046074
 F      2.1841716052     2.2049092685    -0.3491756191
 H      0.3759142742     0.3685054172     2.0181573676
 F      0.9749593635    -0.2614478473     1.7262791987
 H     -0.4437926622     2.3189087655     1.7716889732
 F     -0.6615003115     1.6287039791     2.3348139436
 H      0.8877370558     3.0477658520     0.2561319455
 F      0.1127112576     3.3776024540     0.6186672238
 H      0.9934867075    -0.0470249573    -1.7350161368
 F      1.3211219918     0.6654530342    -2.2103257539
