          12
Energy: -0.699794699419698 Kcal/mole
 H      2.7487731810    -2.1654694186    -0.6223828136
 F      3.3233469012    -2.1654694186     0.0922877679
 H      1.7985547709     2.0876110907    -2.4001038593
 F      2.7155547709     2.0876110907    -2.4001038593
 H      0.4504429532    -1.7115794022     1.5006578176
 F      0.3344454395    -1.7115794022     2.4102915773
 H     -3.0454108749     0.6153018889     2.5746018254
 F     -2.1284108749     0.6153018889     2.5746018254
 H      3.1488720756     1.8382366132     1.8788077755
 F      2.5457792447     1.8382366132     2.5695812820
 H     -0.6956670821     0.3054203307    -2.8658027084
 F      0.1694050929     0.0012178781    -2.8658027084
