          12
Energy: -41.78394450018314 Kcal/mole
 H      0.0328504564    -0.9543454473    -0.0521974555
 F     -0.0968218072    -0.9725230097    -0.9598007170
 H      2.0971808193     1.6220748864    -0.7056262443
 F      2.5108598586     1.8911712570     0.0672552446
 H     -0.0888385530     0.1557745143     1.7574093968
 F      0.3158562705    -0.6423615579     1.5571847478
 H     -0.2131652266     2.3885519971     1.7071030043
 F     -0.7702940513     1.6781735839     1.8679102890
 H      1.5607828256     3.0261655763     0.8532939461
 F      0.9082189987     3.5102203131     1.2784297638
 H      0.6730862960     0.3300494292    -1.6876724345
 F      1.1235897624     1.0843513932    -1.9502827427
