          12
Energy: -41.58585130016755 Kcal/mole
 H      0.4797594382    -0.8292566541     0.1673554413
 F      0.2241166462    -0.9077936297    -0.7097806407
 H      2.0008758730     1.8400051198    -1.0706616762
 F      2.3267348175     2.2810681746    -0.3357002282
 H      0.3262706786     0.2453441331     2.0870657758
 F      0.8673026145    -0.4253431159     1.7734544585
 H     -0.2446904087     2.3137282376     1.9670776356
 F     -0.5493267577     1.5679695069     2.4051753536
 H      1.1429871543     3.1145005220     0.4709046878
 F      0.4119094863     3.4184635380     0.9335286477
 H      0.8324961440     0.2480686091    -1.7653110580
 F      1.2331618065     0.9476754792    -2.2022392606
          12
Energy: -41.519405842543875 Kcal/mole
 H      0.6458956900    -0.8192008162     0.2337619805
 F      0.3770780204    -0.9564384328    -0.6321432667
 H      1.8644538946     2.0957550073    -1.1572253828
 F      2.3529610310     2.5193141569    -0.5069581882
 H      0.4380508690     0.2845624320     2.0594141090
 F      1.0410822626    -0.3546793926     1.7974751314
 H     -0.1041427832     2.2991530116     1.9707627796
 F     -0.6209940194     1.5554354190     2.1144218978
 H      1.4521884488     3.2430987902     0.7076203502
 F      0.9785847498     3.4934692763     1.4518670539
 H      0.6684454919     0.3306329779    -1.6389344333
 F      0.8626570833     1.1026922789    -2.0940116723
          12
Energy: -41.54973922475847 Kcal/mole
 H      0.6377377454    -0.8766185999     0.2128661696
 F      0.4792550197    -0.9823124197    -0.6841293945
 H      1.9368212388     1.9742807841    -1.0199991606
 F      2.5348082275     2.3572600072    -0.4398030939
 H      0.4580197021     0.2197814189     2.0032288930
 F      0.9558428248    -0.5158575441     1.7754209594
 H     -0.0277945309     2.3893913975     1.8427464960
 F     -0.4597860403     1.6306746359     2.1231412381
 H      1.6654528300     3.2607007084     0.7260728676
 F      1.0374296441     3.6075381306     1.2971942911
 H      0.6171302493     0.4075778860    -1.6044896243
 F      0.7448257586     1.2529797903    -1.9359688499
          12
Energy: -41.55605057928304 Kcal/mole
 H      0.6020555403    -0.9134193977     0.1803232821
 F      0.3862058245    -1.1083609293    -0.6893293493
 H      1.9655664277     1.9844604396    -0.9095060622
 F      2.4618278812     2.4398999847    -0.2872614234
 H      0.5503363729     0.3517985684     1.9625306865
 F      1.1288881702    -0.2984487145     1.6738348449
 H     -0.0958438603     2.5189356125     1.9009486124
 F     -0.4097627661     1.7269357766     2.2401833107
 H      1.3872668373     3.3514109940     0.6141103695
 F      0.7460294399     3.7443909166     1.1387725279
 H      0.7245288791     0.2873109656    -1.5505331965
 F      0.8967927400     1.1204403117    -1.8927460762
          12
Energy: -41.55754776970639 Kcal/mole
 H      0.2352710990    -0.9953836675    -0.0689424854
 F      0.1161877698    -1.0782420686    -0.9743941108
 H      2.2286193758     1.7914952570    -0.8083778420
 F      2.6852995808     2.1661579648    -0.1069792066
 H      0.1233100644     0.2233723438     1.7177614687
 F      0.6066926371    -0.5049597319     1.4407006886
 H     -0.1006057808     2.3226218855     1.8433731606
 F     -0.6521732132     1.6348142499     2.0955299053
 H      1.6629272429     3.1224915303     0.8237907099
 F      1.0141558644     3.4640805217     1.3745190090
 H      0.8055342713     0.2835403204    -1.6949225103
 F      1.2294855760     1.0589629800    -1.9396141331
          12
Energy: -41.68207324023595 Kcal/mole
 H      0.2468232465    -0.9588958860    -0.1603896440
 F      0.2075988504    -1.0267677827    -1.0740328197
 H      2.1888146274     1.7879508933    -0.7703984901
 F      2.6376656811     2.0868965164    -0.0287427437
 H      0.0440372400     0.1566030029     1.7100021740
 F      0.4741723606    -0.6225883869     1.4892453935
 H     -0.1331403819     2.3196958313     1.8712643868
 F     -0.6946740351     1.6068294772     2.0031374979
 H      1.6278836192     3.0915456865     0.8787694289
 F      0.9574728164     3.4810859698     1.3683577491
 H      0.8226937915     0.3797748774    -1.6922010629
 F      1.1932037450     1.1804910270    -1.9421310974
          12
Energy: -41.61364467273032 Kcal/mole
 H      0.1990137315    -0.9483045297    -0.1334680098
 F      0.0804744376    -0.9959963833    -1.0415224811
 H      2.0849327957     1.7515417171    -0.7529489308
 F      2.5374437369     1.9703310065     0.0140283146
 H     -0.0425333318     0.2174192337     1.6723021609
 F      0.4243537935    -0.5534466803     1.5029765727
 H     -0.1846100205     2.3913356778     1.6196473863
 F     -0.7797771999     1.7017300780     1.7250473160
 H      1.6002744363     3.0641711938     0.8316854170
 F      0.9183330504     3.5106805441     1.2517739151
 H      0.6802402435     0.3857588235    -1.6836783827
 F      1.0330791538     1.2020000713    -1.9076067835
          12
Energy: -41.68648319749656 Kcal/mole
 H      0.0440417437    -0.9343766840    -0.0355943528
 F     -0.0988632616    -0.9469865678    -0.9413029981
 H      2.0283682772     1.5840545138    -0.6966280111
 F      2.4636668020     1.7876301939     0.0843720764
 H     -0.1312757615     0.1326055714     1.7578433485
 F      0.3181074663    -0.6411324990     1.5571617276
 H     -0.2161209360     2.3928526689     1.6779015618
 F     -0.7845476186     1.6916791057     1.8395670831
 H      1.5989443429     3.0014582296     0.8769452806
 F      0.9510766001     3.5122306088     1.2772800960
 H      0.6158002664     0.3669654118    -1.6694435272
 F      1.0510393117     1.1315064921    -1.9281574814
          12
Energy: -41.741214333783375 Kcal/mole
 H      0.0259019649    -0.9703040342    -0.0510615838
 F     -0.0964532058    -0.9716764435    -0.9598609723
 H      2.0897122829     1.6204797817    -0.7010192017
 F      2.5112560472     1.8912558736     0.0670108516
 H     -0.0755367999     0.1636847182     1.7520581448
 F      0.3151506432    -0.6427811759     1.5574686193
 H     -0.2173813368     2.3872835923     1.6881342877
 F     -0.7700703964     1.6782408698     1.8689165356
 H      1.5684361141     3.0358974516     0.8668225691
 F      0.9119198475     3.5181474508     1.2879049007
 H      0.6579935165     0.3452532705    -1.6713479510
 F      1.1243903995     1.0835448645    -1.9511487188
          12
Energy: -41.78394450018314 Kcal/mole
 H      0.0328504564    -0.9543454473    -0.0521974555
 F     -0.0968218072    -0.9725230097    -0.9598007170
 H      2.0971808193     1.6220748864    -0.7056262443
 F      2.5108598586     1.8911712570     0.0672552446
 H     -0.0888385530     0.1557745143     1.7574093968
 F      0.3158562705    -0.6423615579     1.5571847478
 H     -0.2131652266     2.3885519971     1.7071030043
 F     -0.7702940513     1.6781735839     1.8679102890
 H      1.5607828256     3.0261655763     0.8532939461
 F      0.9082189987     3.5102203131     1.2784297638
 H      0.6730862960     0.3300494292    -1.6876724345
 F      1.1235897624     1.0843513932    -1.9502827427
