          12
Energy: -41.84341842849841 Kcal/mole
 H     -0.0864345307    -1.3554750169     0.0459676680
 F      0.2174896224    -1.4542126090    -0.8135496367
 H      1.9716700122     1.5165596244    -0.6893984597
 F      2.5445842981     1.8266608510    -0.0440338727
 H     -0.8636139520    -0.0281623105     1.5145746373
 F     -0.5895625471    -0.9021618491     1.5582739968
 H     -0.4169932819     2.0749445166     1.4855829668
 F     -1.1466980186     1.5765501804     1.2405868795
 H      1.6416638872     2.5101466782     1.1782960174
 F      1.0317692218     2.7946236738     1.8011847202
 H      0.5664419362     0.0440423364    -1.4284835988
 F      0.7596431988     0.9156651820    -1.6378538144
