          8
Energy: -28.93193054571978 Kcal/mole
 H     -3.0821486613    -6.0724599650    -6.0209909948
 F     -2.7818665830    -5.4471070289    -6.6207020742
 H     -2.4840755299    -4.0335515220    -5.7743232755
 F     -2.4085179045    -3.4202359007    -5.0968101805
 H     -2.8886942732    -4.1683143076    -3.6779495763
 F     -3.1888168872    -4.7937172260    -3.0782107946
 H     -3.4869161134    -6.2072001465    -3.9246704958
 F     -3.5626286700    -6.8204542218    -4.6022220052
