          8
Energy: -28.929754685660384 Kcal/mole
 H     -3.4122796150    -5.7524836066    -5.8671700703
 F     -3.0430581119    -5.1172627709    -6.4158584805
 H     -2.0626571151    -4.1486113063    -5.4695686666
 F     -1.6194659299    -3.7900559814    -4.7513008528
 H     -2.0524190976    -4.6668251158    -3.3853120917
 F     -2.4401584189    -5.2889976969    -2.8344504956
 H     -3.3883002374    -6.2853890114    -3.7937531265
 F     -3.8121617250    -6.6554588165    -4.5178241028
