          8
Energy: -28.88146809669891 Kcal/mole
 H     -3.2846480019    -5.8782755875    -5.8784932648
 F     -2.9237545431    -5.2629911819    -6.4547484266
 H     -1.9807178144    -4.1997949089    -5.5229194974
 F     -1.5910666200    -3.8043046801    -4.7930918290
 H     -2.0754768950    -4.6099185219    -3.3900796913
 F     -2.4782748190    -5.2255915426    -2.8427319371
 H     -3.3812012403    -6.2759344682    -3.7801657712
 F     -3.7610240374    -6.6869457562    -4.5065908285
          8
Energy: -28.899741573204295 Kcal/mole
 H     -3.3231843533    -5.8847345580    -5.8527158133
 F     -2.9323182840    -5.2727943981    -6.4127532732
 H     -2.0995843055    -4.1631139491    -5.4899081813
 F     -1.7300922487    -3.7306074940    -4.7706705389
 H     -2.2906127338    -4.4863808487    -3.3784359856
 F     -2.7142618511    -5.0821934268    -2.8248858097
 H     -3.4684133661    -6.2198586014    -3.7747105887
 F     -3.8003930859    -6.7031040691    -4.4798008549
          8
Energy: -28.87874861965352 Kcal/mole
 H     -3.1348167286    -6.1044660290    -5.8978045921
 F     -2.8037302532    -5.4856797547    -6.4880369977
 H     -2.0793830608    -4.2853067572    -5.5600322676
 F     -1.7917586531    -3.7636019529    -4.8629058104
 H     -2.4172054216    -4.4474126491    -3.4868363081
 F     -2.8403670453    -5.0188428205    -2.9077933050
 H     -3.4226601732    -6.3275775411    -3.7827834348
 F     -3.6076291202    -6.8782646519    -4.4923038324
          8
Energy: -28.893029101018584 Kcal/mole
 H     -2.9831398333    -6.1775215447    -5.8745878335
 F     -2.6048397345    -5.5547998815    -6.4313604669
 H     -2.0698932468    -4.2541025288    -5.5309240456
 F     -1.8635136089    -3.7137285070    -4.8193818039
 H     -2.3949356827    -4.4977781103    -3.4471946544
 F     -2.7401931542    -5.1284260697    -2.8780115295
 H     -3.3268252031    -6.3893000000    -3.8099510070
 F     -3.5528222446    -6.9445812455    -4.5038364987
          8
Energy: -28.862516181047283 Kcal/mole
 H     -3.1114705354    -6.1329651173    -5.9009377187
 F     -2.7954367739    -5.4906626167    -6.4740512846
 H     -2.1649710220    -4.2179135782    -5.5774730116
 F     -1.8989249952    -3.7088898940    -4.8626279931
 H     -2.4343302693    -4.5037773451    -3.5092477572
 F     -2.7899262756    -5.0956298805    -2.9057984580
 H     -3.3078395343    -6.4247199079    -3.8030002829
 F     -3.5209762610    -6.9787509549    -4.5019361417
          8
Energy: -28.899044938435765 Kcal/mole
 H     -3.1441107479    -6.1030199972    -5.8886669051
 F     -2.8905456033    -5.4505625953    -6.4810291727
 H     -2.3086370986    -4.1512179872    -5.5778926319
 F     -2.0704845082    -3.6043743604    -4.8813767372
 H     -2.4114784786    -4.4290626518    -3.4786068321
 F     -2.6953528089    -5.0711788874    -2.8886991236
 H     -3.2695020717    -6.3643218389    -3.7924310364
 F     -3.4961464728    -6.9171621002    -4.4880523133
          8
Energy: -28.887799829642233 Kcal/mole
 H     -3.1789242198    -6.0601372737    -5.9560670431
 F     -2.8718222758    -5.4127952736    -6.5283656809
 H     -2.2446721369    -4.1324454131    -5.6368500782
 F     -2.0005792071    -3.6206876545    -4.9161478942
 H     -2.4536511972    -4.4084717328    -3.4861877793
 F     -2.8078303611    -5.0224848549    -2.9044369687
 H     -3.3562763377    -6.3246484698    -3.8177324627
 F     -3.5770316416    -6.8684531203    -4.5223121941
          8
Energy: -28.906844224405233 Kcal/mole
 H     -3.2623303780    -6.0343213562    -5.9325062507
 F     -2.9266950370    -5.4032021189    -6.5068984740
 H     -2.3326713631    -4.1272060699    -5.6005614549
 F     -2.1138633678    -3.5833871324    -4.8953855730
 H     -2.5444761081    -4.4111891191    -3.4944662085
 F     -2.8668500520    -5.0626898163    -2.9354394811
 H     -3.4417261764    -6.3503045699    -3.8535988752
 F     -3.6754187854    -6.8762486901    -4.5675033134
          8
Energy: -28.873203769370576 Kcal/mole
 H     -3.1307072123    -6.0494470086    -5.9448907282
 F     -2.8978448397    -5.3617573819    -6.5050220456
 H     -2.3931550618    -4.0480188463    -5.5787646643
 F     -2.1695496329    -3.5086499759    -4.8716785071
 H     -2.5626830191    -4.3482670409    -3.4487124184
 F     -2.8720075151    -5.0268109421    -2.9150594129
 H     -3.2685420464    -6.3673162171    -3.8439591633
 F     -3.4355554269    -6.9218426214    -4.5549415806
          8
Energy: -28.90638985518305 Kcal/mole
 H     -3.1197752724    -6.0092608947    -5.9330557205
 F     -2.7496515287    -5.3817195926    -6.4899123704
 H     -2.2755088300    -4.0723429894    -5.5498833649
 F     -2.0945205992    -3.5267578883    -4.8354121215
 H     -2.5312142980    -4.3602831286    -3.4353497541
 F     -2.8355308494    -5.0220407105    -2.8782525101
 H     -3.4200299727    -6.2777751753    -3.8189076096
 F     -3.6439674013    -6.8070144868    -4.5335031451
          8
Energy: -28.90328560733451 Kcal/mole
 H     -3.1597024584    -6.0019846055    -5.9774152787
 F     -2.7020072198    -5.4196600322    -6.5180650357
 H     -1.9889071989    -4.2606617375    -5.5616795376
 F     -1.7250753144    -3.7540866122    -4.8442791061
 H     -2.3868327212    -4.4486153035    -3.4804422800
 F     -2.8198671391    -5.0246822453    -2.9134175261
 H     -3.5148973169    -6.2201963694    -3.8592270020
 F     -3.7806245106    -6.7278905942    -4.5751352591
          8
Energy: -28.89231795128009 Kcal/mole
 H     -3.2634440947    -5.9835643404    -5.9252077538
 F     -2.7628280890    -5.4611064686    -6.4885108578
 H     -1.9648689145    -4.2623731512    -5.5798824648
 F     -1.6997820973    -3.7524528587    -4.8653201690
 H     -2.4450142764    -4.3815475252    -3.4993794237
 F     -2.9476660958    -4.9117544337    -2.9452036550
 H     -3.6773856407    -6.1075445983    -3.8698027187
 F     -3.9548547391    -6.6290056823    -4.5712143221
          8
Energy: -28.90907172893037 Kcal/mole
 H     -3.1306015978    -6.0358722414    -5.9613651290
 F     -2.6461380293    -5.4721149648    -6.4983584101
 H     -2.0949995495    -4.2096434766    -5.5661010570
 F     -1.8997103557    -3.6627038415    -4.8564475033
 H     -2.5797354100    -4.3689645557    -3.5043772204
 F     -3.0197081170    -4.9412622752    -2.9388789115
 H     -3.6364866191    -6.1832968111    -3.8717266543
 F     -3.8612881306    -6.6992712148    -4.5956905313
          8
Energy: -28.912193149552763 Kcal/mole
 H     -3.1306585986    -6.0277203503    -5.9521248022
 F     -2.6594439496    -5.4742064929    -6.5111133212
 H     -1.9838860753    -4.2534692697    -5.5664203405
 F     -1.7490662903    -3.7526561892    -4.8350278829
 H     -2.4719256481    -4.3958075635    -3.4822820866
 F     -2.9639327788    -4.9328983949    -2.9251901533
 H     -3.6203292835    -6.1406520029    -3.8625410674
 F     -3.8354507010    -6.6723610222    -4.5780110489
          8
Energy: -28.894249149351197 Kcal/mole
 H     -3.1609780389    -6.0505780019    -5.9037116411
 F     -2.6653711787    -5.5101235906    -6.4543220929
 H     -1.9721172995    -4.2923685268    -5.5508593707
 F     -1.7658390783    -3.7322906308    -4.8546905364
 H     -2.5490425525    -4.3326386460    -3.4874646395
 F     -3.0758382167    -4.8500035092    -2.9436733869
 H     -3.7366956927    -6.1213057035    -3.8446850318
 F     -3.9395057135    -6.6729180424    -4.5485890899
          8
Energy: -28.909606136348316 Kcal/mole
 H     -3.1614820386    -6.0379713212    -5.9106145897
 F     -2.6344917577    -5.5458645260    -6.4771842199
 H     -2.0084193690    -4.2968892828    -5.5779507420
 F     -1.8205808505    -3.7221799095    -4.8885199425
 H     -2.6780741206    -4.2026177976    -3.5191318219
 F     -3.2389651402    -4.6824523075    -2.9750278729
 H     -3.8076435156    -5.9972783710    -3.8522904917
 F     -3.9557164967    -6.5849538081    -4.5404772200
          8
Energy: -28.89016487654669 Kcal/mole
 H     -3.1575300333    -6.0180397662    -5.8955433190
 F     -2.5857191421    -5.5565612697    -6.4441405319
 H     -1.9675097336    -4.2602629356    -5.5810987435
 F     -1.8218583341    -3.6517375305    -4.9107469692
 H     -2.7400905383    -4.1447218342    -3.6302280010
 F     -3.3220665019    -4.5873545396    -3.0768120038
 H     -3.8763270553    -5.9245357257    -3.9054460920
 F     -4.0250526843    -6.5371354795    -4.5713974633
          8
Energy: -28.896102198741715 Kcal/mole
 H     -3.1859873197    -5.9486384615    -5.9003002221
 F     -2.6374878202    -5.4727769429    -6.4602940740
 H     -2.0830304668    -4.1047333282    -5.6107868283
 F     -1.9400777285    -3.5163653924    -4.9221093372
 H     -2.7077134412    -4.0864406497    -3.5532008317
 F     -3.2205966190    -4.5960512549    -2.9891645945
 H     -3.8437716985    -5.8796600028    -3.8741256975
 F     -4.0204281167    -6.4701364038    -4.5531095925
          8
Energy: -28.896681470367383 Kcal/mole
 H     -3.1073263829    -6.0533011901    -5.8621439214
 F     -2.5261115454    -5.5934163521    -6.4021293364
 H     -2.0532566403    -4.2124025540    -5.6056221477
 F     -1.9476629277    -3.5568279020    -4.9731975723
 H     -2.7735590620    -4.0569252645    -3.5896453211
 F     -3.2826138976    -4.5618994742    -3.0180219994
 H     -3.8566347846    -5.8895179302    -3.8612227016
 F     -4.0169543469    -6.4878538496    -4.5373741385
          8
Energy: -28.895041058311108 Kcal/mole
 H     -3.1849107474    -5.9753764663    -5.8950880817
 F     -2.6501228510    -5.4830676192    -6.4541255624
 H     -2.1152171885    -4.1738161749    -5.5983700052
 F     -1.9268624713    -3.5618073122    -4.9419732863
 H     -2.7365206547    -4.0840703928    -3.5766311484
 F     -3.2597410109    -4.5867519043    -3.0158809751
 H     -3.8311197104    -5.9148302845    -3.8760969155
 F     -4.0154213304    -6.5097223638    -4.5491684770
          8
Energy: -28.905956123810796 Kcal/mole
 H     -3.1429037879    -6.0327133610    -5.8857764515
 F     -2.6186011587    -5.5501144537    -6.4629194561
 H     -2.0334605040    -4.2322181188    -5.6189755259
 F     -1.8802917181    -3.6299003747    -4.9447043207
 H     -2.7120856056    -4.1125096150    -3.5844988897
 F     -3.2358516566    -4.5754287457    -2.9909805646
 H     -3.8315586717    -5.9013719688    -3.8353589777
 F     -3.9844951431    -6.5176692871    -4.4969306300
          8
Energy: -28.8661814427752 Kcal/mole
 H     -3.0669276689    -6.0686115174    -5.7868825268
 F     -2.4401660360    -5.6565351026    -6.3143783883
 H     -1.9722482757    -4.2673146321    -5.5328671229
 F     -1.8604831418    -3.6147719926    -4.8983707411
 H     -2.6875897282    -4.0828715477    -3.5223653371
 F     -3.2300942145    -4.5636341140    -2.9607202202
 H     -3.8582396332    -5.8649017704    -3.8437810798
 F     -4.0491421951    -6.4618491571    -4.5131830737
          8
Energy: -28.919026508564883 Kcal/mole
 H     -3.0874487212    -6.0757762601    -5.7882576945
 F     -2.5107001014    -5.6332855094    -6.3472317235
 H     -1.9349261063    -4.2931961510    -5.5358267469
 F     -1.7972123416    -3.6623166733    -4.8847391924
 H     -2.6161484708    -4.1500558261    -3.5097148702
 F     -3.1550967103    -4.6199017777    -2.9355471448
 H     -3.8029650281    -5.9044063150    -3.7848456325
 F     -3.9921605106    -6.5053206882    -4.4511758700
          8
Energy: -28.89551058578118 Kcal/mole
 H     -3.1143872655    -6.0867421913    -5.7684263878
 F     -2.6006836241    -5.5936451515    -6.3462264208
 H     -2.0189009430    -4.2490230334    -5.5445588004
 F     -1.8401330928    -3.6359065720    -4.8865168105
 H     -2.6400315023    -4.1130401736    -3.5035568577
 F     -3.1492005921    -4.5925242903    -2.9104878737
 H     -3.7209914129    -5.9749048458    -3.6962925836
 F     -3.9084320156    -6.5911394304    -4.3489869662
          8
Energy: -28.90959505618335 Kcal/mole
 H     -3.1017857691    -6.1194071906    -5.7301158204
 F     -2.5085972958    -5.6848935162    -6.2780339730
 H     -1.8811346834    -4.3541383132    -5.4757382450
 F     -1.6998444233    -3.7253278463    -4.8333830175
 H     -2.5654903195    -4.1800396990    -3.4703647541
 F     -3.1243460698    -4.6232659191    -2.8940664216
 H     -3.8256040918    -5.9127849596    -3.7128920036
 F     -4.0190345494    -6.5127930541    -4.3788228894
          8
Energy: -28.90536729104815 Kcal/mole
 H     -3.1120736312    -6.0924266636    -5.6898262842
 F     -2.5690674290    -5.6392452322    -6.2734870201
 H     -1.9666920300    -4.2733903863    -5.4847682158
 F     -1.7837238447    -3.6585706674    -4.8294756427
 H     -2.6515086220    -4.0929360040    -3.4684034330
 F     -3.2161669961    -4.5350891024    -2.8969574091
 H     -3.8259733736    -5.8799255539    -3.6800352773
 F     -3.9898274048    -6.5266762986    -4.3091253589
          8
Energy: -28.907061296281 Kcal/mole
 H     -2.9665766458    -6.2014821749    -5.5658923445
 F     -2.4665484560    -5.7526841466    -6.1899445371
 H     -2.0430180753    -4.2862926143    -5.4984216069
 F     -1.9515675268    -3.5901256892    -4.9086102730
 H     -2.7585107146    -4.0303347988    -3.4978249723
 F     -3.2581765775    -4.4973860350    -2.8870171726
 H     -3.7315238969    -5.9329458648    -3.5842980154
 F     -3.8216375804    -6.6153946251    -4.1901298515
          8
Energy: -28.900904474189815 Kcal/mole
 H     -2.9689924715    -6.2050283692    -5.6208605870
 F     -2.4936461602    -5.7080988803    -6.2274872987
 H     -2.0460076146    -4.2943594724    -5.4618443365
 F     -1.9109864238    -3.6241087435    -4.8507614956
 H     -2.7033392090    -4.0993193585    -3.4594370229
 F     -3.2086424773    -4.5798851014    -2.8639421247
 H     -3.6288268701    -6.0231667435    -3.6108641986
 F     -3.7389087038    -6.6965958439    -4.2234523445
          8
Energy: -28.89197313883841 Kcal/mole
 H     -3.0211961189    -6.1756712602    -5.6549968716
 F     -2.5725006857    -5.6803715772    -6.2828819186
 H     -2.1155656113    -4.2544355698    -5.5129347179
 F     -1.9794162509    -3.6107460190    -4.8741733276
 H     -2.7085931478    -4.1460086305    -3.4535935106
 F     -3.1689429716    -4.6495248030    -2.8408631427
 H     -3.6043400033    -6.0682602790    -3.5932501830
 F     -3.7024960182    -6.7105747574    -4.2403100779
          8
Energy: -28.904097169537835 Kcal/mole
 H     -3.1432918932    -6.1256562038    -5.7064000035
 F     -2.7193633973    -5.6007371966    -6.3273940987
 H     -2.2058959795    -4.2119067058    -5.5401525563
 F     -2.0558625719    -3.5663949796    -4.9063595397
 H     -2.7067552010    -4.1304562644    -3.4813608426
 F     -3.1484234735    -4.6457573560    -2.8646900049
 H     -3.5954067030    -6.0688495086    -3.6194427628
 F     -3.7465748094    -6.7111396557    -4.2562320298
          8
Energy: -28.912161672460286 Kcal/mole
 H     -3.1451652227    -6.1176321129    -5.7146930039
 F     -2.7238432038    -5.5813928790    -6.3277380597
 H     -2.2378179231    -4.1528118799    -5.5576743584
 F     -2.1014552719    -3.5145663807    -4.9135183912
 H     -2.6783563271    -4.1339033269    -3.4714950238
 F     -3.0700903932    -4.6892809341    -2.8558740894
 H     -3.5851015766    -6.0796168031    -3.6332421365
 F     -3.7602536024    -6.7038899161    -4.2816971066
          8
Energy: -28.91528021929591 Kcal/mole
 H     -3.1775555981    -6.0706856581    -5.7626561749
 F     -2.8270835241    -5.4960449704    -6.3854293322
 H     -2.3398401488    -4.0953917948    -5.5843154593
 F     -2.1699476176    -3.4823446243    -4.9238620585
 H     -2.7681492606    -4.0975894851    -3.4788799196
 F     -3.1549841799    -4.6548489484    -2.8618631971
 H     -3.5953071861    -6.0823830618    -3.6508708509
 F     -3.7243862518    -6.7152713623    -4.3017779056
          8
Energy: -28.915695624147162 Kcal/mole
 H     -3.1879311303    -6.0888488193    -5.7667417698
 F     -2.8344813405    -5.5162448641    -6.3897080262
 H     -2.3537734050    -4.1398198275    -5.5768377247
 F     -2.1706950618    -3.5349149788    -4.9124120747
 H     -2.6297529016    -4.1990938890    -3.4468877419
 F     -2.9744290863    -4.7670543326    -2.8148210823
 H     -3.5186585797    -6.1133811119    -3.6298607150
 F     -3.7040451282    -6.7226885321    -4.2896071020
          8
Energy: -28.913667699525377 Kcal/mole
 H     -3.2141476206    -6.0651583685    -5.7974379788
 F     -2.8888520900    -5.4669082488    -6.4115785263
 H     -2.4152934182    -4.1142833099    -5.5728890625
 F     -2.2276121031    -3.5167262164    -4.9031202636
 H     -2.6304592712    -4.2419770292    -3.4588671170
 F     -2.9373813860    -4.8343743769    -2.8297779357
 H     -3.4608053870    -6.1796564861    -3.6684098804
 F     -3.6570717624    -6.7769510081    -4.3359484665
          8
Energy: -28.891633406375888 Kcal/mole
 H     -3.2880658419    -6.0463863391    -5.8207383980
 F     -3.0156175043    -5.4176125886    -6.4300859787
 H     -2.3928601352    -4.1038105438    -5.6044518916
 F     -2.0978007235    -3.5452282862    -4.9397603804
 H     -2.5570073583    -4.2241424868    -3.4806981772
 F     -2.9023611869    -4.7914189592    -2.8483872276
 H     -3.4250264556    -6.1719496459    -3.6663660305
 F     -3.6266378390    -6.7703284005    -4.3313357412
          8
Energy: -28.91208069437343 Kcal/mole
 H     -3.2904102947    -5.9942210743    -5.8034503832
 F     -2.9679214063    -5.4044372273    -6.4271850468
 H     -2.3425060772    -4.0788618187    -5.5893085428
 F     -2.0810397739    -3.5290306633    -4.9035898885
 H     -2.4660579833    -4.2614922374    -3.4423082484
 F     -2.7729934160    -4.8711467979    -2.8299350313
 H     -3.4028568398    -6.1737886953    -3.6869002266
 F     -3.6719499329    -6.7347499246    -4.3605473200
          8
Energy: -28.912406498850288 Kcal/mole
 H     -3.2590962307    -6.0136700780    -5.8340544546
 F     -2.9819793046    -5.3887117415    -6.4452191517
 H     -2.3096246826    -4.1117196777    -5.5906997002
 F     -2.0101358909    -3.5706374528    -4.9136284414
 H     -2.4289886421    -4.2920768364    -3.4511571315
 F     -2.7732318327    -4.8849383503    -2.8421408336
 H     -3.3885984877    -6.1931832023    -3.6917142002
 F     -3.6295406151    -6.7602258440    -4.3709038156
          8
Energy: -28.90606100909713 Kcal/mole
 H     -3.1368170496    -6.0613217807    -5.8501020874
 F     -2.8421320752    -5.4508498984    -6.4676568192
 H     -2.2695615870    -4.1371847113    -5.6182163812
 F     -2.0268201770    -3.5733630600    -4.9369889937
 H     -2.4115498370    -4.3302431720    -3.4822149937
 F     -2.7443908232    -4.9258872530    -2.8695862262
 H     -3.2933976461    -6.2598711651    -3.7249164150
 F     -3.5327548233    -6.8195910976    -4.4107084672
          8
Energy: -28.91617897569114 Kcal/mole
 H     -3.1505057687    -6.0682546745    -5.8909880483
 F     -2.8714869171    -5.4294826800    -6.4868133747
 H     -2.3851701163    -4.1050824687    -5.6056924220
 F     -2.1721680452    -3.5359753152    -4.9189347023
 H     -2.5175275724    -4.3209032391    -3.4856952572
 F     -2.7868856997    -4.9503477866    -2.8756667654
 H     -3.3080114651    -6.2651724201    -3.7462847839
 F     -3.5229822448    -6.8281582537    -4.4374602429
          8
Energy: -28.920883577200385 Kcal/mole
 H     -3.2095372667    -6.0567218083    -5.8689744291
 F     -2.9168423847    -5.4341588777    -6.4753028083
 H     -2.3608723660    -4.1234134704    -5.6068265701
 F     -2.1461400218    -3.5554670776    -4.9196468881
 H     -2.5125296848    -4.3438908135    -3.4975564102
 F     -2.7948459823    -4.9753246880    -2.8954951423
 H     -3.3860444270    -6.2821430727    -3.7593615755
 F     -3.6228283805    -6.8310273006    -4.4547380661
          8
Energy: -28.91497338372281 Kcal/mole
 H     -3.1769489490    -6.0760167786    -5.8710154695
 F     -2.8448547602    -5.4733610963    -6.4771578443
 H     -2.2958900140    -4.1473975272    -5.6127736059
 F     -2.0698436738    -3.5891360317    -4.9212997057
 H     -2.4963996185    -4.3590257778    -3.4853073560
 F     -2.8279941056    -4.9672387326    -2.8844653654
 H     -3.3987123241    -6.2964365287    -3.7602389654
 F     -3.6218410901    -6.8445332994    -4.4607334220
          8
Energy: -28.880065334283046 Kcal/mole
 H     -3.1588577898    -6.0940775739    -5.9140606614
 F     -2.8582614403    -5.4549545336    -6.4989132702
 H     -2.3536566833    -4.1052545580    -5.6664737559
 F     -2.1289699798    -3.5266782577    -4.9914520155
 H     -2.6532045486    -4.2574628702    -3.5964592845
 F     -3.0054882793    -4.8631981880    -3.0049612728
 H     -3.4541111570    -6.2618498256    -3.8084394388
 F     -3.6048294235    -6.8696969505    -4.4782863444
          8
Energy: -28.91341257877383 Kcal/mole
 H     -3.1237181088    -6.1168641296    -5.9017087600
 F     -2.8188237515    -5.4981800857    -6.5059922074
 H     -2.3414040775    -4.1081822832    -5.6754363681
 F     -2.1743227172    -3.5205841758    -4.9915494744
 H     -2.6504894533    -4.2685179713    -3.5625337128
 F     -2.9849491067    -4.8759358941    -2.9624760428
 H     -3.4078648691    -6.2784450104    -3.7877169684
 F     -3.5671692362    -6.8728008048    -4.4676083629
          8
Energy: -28.909575004626163 Kcal/mole
 H     -3.0804733435    -6.1560353232    -5.9034913981
 F     -2.7659371936    -5.5358958253    -6.5013065983
 H     -2.3087270774    -4.1385981693    -5.6794145708
 F     -2.1551428345    -3.5381021168    -5.0036147696
 H     -2.6295468060    -4.2733888326    -3.5791305915
 F     -2.9699727432    -4.8684797734    -2.9701429451
 H     -3.3973772187    -6.2834918521    -3.7904462802
 F     -3.5500506790    -6.8850020466    -4.4655501985
          8
Energy: -28.916318430013376 Kcal/mole
 H     -3.0661317815    -6.1497067728    -5.8897632252
 F     -2.7666979803    -5.5362315403    -6.5020348461
 H     -2.3538226876    -4.1349428979    -5.6793315793
 F     -2.2154645864    -3.5181393213    -5.0150278959
 H     -2.6938912158    -4.2344428028    -3.6032925922
 F     -3.0193849514    -4.8290638997    -2.9857421252
 H     -3.4147483456    -6.2510226649    -3.7821787767
 F     -3.5382146769    -6.8701080617    -4.4472940572
          8
Energy: -28.917257523356454 Kcal/mole
 H     -3.1710303490    -6.0706335478    -5.8924859481
 F     -2.8689591369    -5.4630440066    -6.5093140701
 H     -2.4827860573    -4.0528246226    -5.6899272640
 F     -2.3416887127    -3.4530215313    -5.0107978278
 H     -2.7441175231    -4.2136364820    -3.5791664651
 F     -3.0171703289    -4.8354811254    -2.9630168042
 H     -3.4535363825    -6.2130854067    -3.7959816557
 F     -3.5995342442    -6.8221639644    -4.4657554496
          8
Energy: -28.92147226713638 Kcal/mole
 H     -3.1894536661    -6.0717193224    -5.9291752875
 F     -2.8947936165    -5.4447908973    -6.5300290176
 H     -2.4933210736    -4.0471052797    -5.6803295981
 F     -2.3584052376    -3.4483073230    -4.9990603971
 H     -2.7820253814    -4.2066707662    -3.5683179180
 F     -3.0625534678    -4.8331871411    -2.9603127989
 H     -3.4750583184    -6.2211746992    -3.7955124885
 F     -3.6273379483    -6.8167732173    -4.4759258331
          8
Energy: -28.922306784293454 Kcal/mole
 H     -3.2213102064    -6.0604511085    -5.9395816343
 F     -2.9238812967    -5.4303583850    -6.5357428570
 H     -2.4677163537    -4.0532211653    -5.6931847601
 F     -2.3087070786    -3.4617940415    -5.0106754139
 H     -2.7313400592    -4.2301365136    -3.5929840462
 F     -3.0336149543    -4.8457328433    -2.9842476117
 H     -3.4725109915    -6.2258425930    -3.8196592414
 F     -3.6338710631    -6.8167809885    -4.5020401760
          8
Energy: -28.91799979230194 Kcal/mole
 H     -3.2117783417    -6.0559544705    -5.9302485827
 F     -2.9243869401    -5.4305969213    -6.5362379538
 H     -2.4732290182    -4.0570253953    -5.6883299955
 F     -2.3089985606    -3.4693259285    -5.0038398980
 H     -2.7822870869    -4.2085687414    -3.5825069004
 F     -3.0777526633    -4.8246272646    -2.9709016444
 H     -3.5036618529    -6.2034134147    -3.8100324870
 F     -3.6337376156    -6.8100048461    -4.4853221517
          8
Energy: -28.922647408691347 Kcal/mole
 H     -3.2624828615    -6.0258608863    -5.9317513262
 F     -2.9249040419    -5.4223471670    -6.5339977302
 H     -2.4383849777    -4.0733567100    -5.6766712939
 F     -2.2774713585    -3.4762077894    -4.9996122316
 H     -2.7564451206    -4.2116895598    -3.5724966702
 F     -3.0791235199    -4.8244617124    -2.9714326640
 H     -3.5598286233    -6.1760015866    -3.8358228040
 F     -3.7374199749    -6.7612651906    -4.5190627513
          8
Energy: -28.91758875372389 Kcal/mole
 H     -3.2661576127    -6.0437755754    -5.9239302405
 F     -2.9424397688    -5.4295749020    -6.5229738868
 H     -2.4450186049    -4.0686738819    -5.6791687200
 F     -2.2771194599    -3.4764562026    -4.9994797489
 H     -2.7624182039    -4.2071377119    -3.5710114431
 F     -3.0788066617    -4.8247031775    -2.9715114519
 H     -3.5802480591    -6.1696893743    -3.8233433818
 F     -3.7456444891    -6.7669886970    -4.4991884380
          8
Energy: -28.922488376761663 Kcal/mole
 H     -3.2537146438    -6.0434482705    -5.9077642438
 F     -2.9424878195    -5.4231191395    -6.5071127510
 H     -2.4625464012    -4.0607851992    -5.6714965682
 F     -2.2775079026    -3.4712485638    -4.9939301069
 H     -2.7477765861    -4.2134848192    -3.5695972252
 F     -3.0795833656    -4.8243664781    -2.9715864729
 H     -3.5569174519    -6.1998587465    -3.8107885776
 F     -3.7294254832    -6.7932976077    -4.4882546632
          8
Energy: -28.918313144144747 Kcal/mole
 H     -3.2568132558    -6.0470128353    -5.9131072977
 F     -2.9423234453    -5.4229300476    -6.5068293143
 H     -2.4765856467    -4.0339934482    -5.6781664250
 F     -2.3129138112    -3.4439567485    -4.9955558308
 H     -2.7498377987    -4.2152201714    -3.5781622707
 F     -3.0519964843    -4.8355355287    -2.9741771829
 H     -3.5132442134    -6.2167135381    -3.8036000172
 F     -3.6958412979    -6.8091231367    -4.4793205010
          8
Energy: -28.918831196362788 Kcal/mole
 H     -3.2785601900    -6.0270700676    -5.9045016845
 F     -2.9411698207    -5.4239879653    -6.5072858222
 H     -2.4982312205    -4.0477389758    -5.6785742969
 F     -2.3402659123    -3.4448335430    -5.0059369500
 H     -2.7415616543    -4.2194427286    -3.5726165737
 F     -3.0338834814    -4.8390805921    -2.9631201688
 H     -3.5561020605    -6.1897141763    -3.8081283804
 F     -3.7576221090    -6.7664236404    -4.4920032696
          8
Energy: -28.919048849987092 Kcal/mole
 H     -3.2796272261    -6.0481608936    -5.9243435413
 F     -2.9656067355    -5.4437153347    -6.5382862892
 H     -2.5154220699    -4.0854383750    -5.6826885155
 F     -2.3406269066    -3.4962300201    -5.0021231877
 H     -2.7364059064    -4.2327346450    -3.5600022604
 F     -3.0309238272    -4.8513212738    -2.9504952653
 H     -3.5441432543    -6.1821677029    -3.8081957383
 F     -3.7406931047    -6.7704554823    -4.4836027600
          8
Energy: -28.919120031298178 Kcal/mole
 H     -3.2972416195    -6.0623980715    -5.9154917296
 F     -2.9951037088    -5.4557849744    -6.5332475336
 H     -2.4948267094    -4.0970968852    -5.7047492590
 F     -2.3074689752    -3.5075224124    -5.0278533878
 H     -2.7306930580    -4.2403568589    -3.5648786101
 F     -3.0312268806    -4.8509169329    -2.9502365862
 H     -3.5252503160    -6.1977954162    -3.8005851317
 F     -3.7306760497    -6.7847022895    -4.4745507021
          8
Energy: -28.92726312765373 Kcal/mole
 H     -3.2885512020    -6.0590722540    -5.9269049421
 F     -2.9875855253    -5.4480473146    -6.5408733329
 H     -2.4818808594    -4.1003157905    -5.6894984067
 F     -2.2844306908    -3.5141916168    -5.0124748591
 H     -2.7009529747    -4.2472927668    -3.5692036455
 F     -2.9996913580    -4.8554243620    -2.9512875176
 H     -3.5236368055    -6.2113656881    -3.7952015626
 F     -3.7135025513    -6.7888558926    -4.4817473093
          8
Energy: -28.9250300501474 Kcal/mole
 H     -3.3234321962    -6.0368048671    -5.9284880612
 F     -3.0321215960    -5.4204384250    -6.5417739189
 H     -2.4837223646    -4.0902995677    -5.7021132362
 F     -2.2701237032    -3.5147006128    -5.0209741499
 H     -2.6919683020    -4.2446423701    -3.5740062321
 F     -3.0016896805    -4.8543496954    -2.9630899979
 H     -3.5076453169    -6.2004025858    -3.8092861283
 F     -3.7143508628    -6.7894374598    -4.4810001556
          8
Energy: -28.92609236518075 Kcal/mole
 H     -3.3539281548    -6.0348553661    -5.9348708352
 F     -3.0494457054    -5.4257109774    -6.5489738817
 H     -2.5208845006    -4.0818506269    -5.6999463271
 F     -2.3104261816    -3.5030408645    -5.0205528071
 H     -2.7004782665    -4.2418723041    -3.5717177340
 F     -2.9829491299    -4.8619520277    -2.9580400109
 H     -3.5315736669    -6.1899061335    -3.8020963293
 F     -3.7501026951    -6.7687084965    -4.4789433493
          8
Energy: -28.92413276181958 Kcal/mole
 H     -3.3342984377    -6.0393148754    -5.9177141678
 F     -3.0372935551    -5.4325669033    -6.5378222214
 H     -2.5153087598    -4.0906669218    -5.6940512332
 F     -2.3107219618    -3.5025731804    -5.0208655283
 H     -2.6946438113    -4.2461821641    -3.5733396027
 F     -2.9832586343    -4.8617233996    -2.9579539746
 H     -3.5390101344    -6.1911177305    -3.7987123452
 F     -3.7497082077    -6.7686442241    -4.4791228618
          8
Energy: -28.92891196764114 Kcal/mole
 H     -3.3349978073    -6.0403488497    -5.9190637025
 F     -3.0372564551    -5.4325120534    -6.5377506317
 H     -2.5149505160    -4.0825270399    -5.7011794274
 F     -2.3107409658    -3.5030049823    -5.0204873940
 H     -2.6944479040    -4.2483586344    -3.5754169651
 F     -2.9832690267    -4.8616079429    -2.9578437753
 H     -3.5363625224    -6.2049634535    -3.7956632347
 F     -3.7561320382    -6.7774006427    -4.4775034097
          8
Energy: -28.926257409142494 Kcal/mole
 H     -3.3380570875    -6.0509585115    -5.9311884406
 F     -3.0370941674    -5.4319492354    -6.5371074424
 H     -2.5143602662    -4.0892747651    -5.6955516934
 F     -2.3107722772    -3.5026470311    -5.0207859323
 H     -2.6951744049    -4.2458434201    -3.5732492745
 F     -2.9832304875    -4.8617413692    -2.9579587663
 H     -3.5171638146    -6.2055287369    -3.7991880512
 F     -3.7358905557    -6.7832385333    -4.4769040713
          8
Energy: -28.922990222284426 Kcal/mole
 H     -3.3346209724    -6.0384823684    -5.9170551227
 F     -3.0372764453    -5.4326110659    -6.5378571822
 H     -2.5127019031    -4.0774818101    -5.6882276599
 F     -2.3086836191    -3.4937540337    -5.0110811301
 H     -2.6980500029    -4.2367498807    -3.5668931223
 F     -2.9882236164    -4.8521978290    -2.9521475677
 H     -3.5101154375    -6.2020468217    -3.7858562396
 F     -3.7242185773    -6.7748112471    -4.4692227288
          8
Energy: -28.927473643840358 Kcal/mole
 H     -3.3622887339    -6.0304342766    -5.9134766648
 F     -3.0610389898    -5.4214706048    -6.5293507088
 H     -2.5385334364    -4.0615044546    -5.6963524013
 F     -2.3308617108    -3.4798350283    -5.0185455462
 H     -2.7064631979    -4.2340982123    -3.5681416585
 F     -2.9877773158    -4.8523384939    -2.9520813357
 H     -3.5196066825    -6.1938516643    -3.7880875434
 F     -3.7384541600    -6.7736467488    -4.4639813527
          8
Energy: -28.9276568426086 Kcal/mole
 H     -3.3592370808    -6.0314476998    -5.9129950637
 F     -3.0612008729    -5.4214168450    -6.5293762566
 H     -2.5342928452    -4.0603583225    -5.6986162653
 F     -2.3310866643    -3.4798958280    -5.0184254534
 H     -2.7057081443    -4.2340114257    -3.5677091280
 F     -2.9878173697    -4.8523430977    -2.9521042804
 H     -3.5306694834    -6.1894550589    -3.7914754748
 F     -3.7563505323    -6.7739832215    -4.4610155343
          8
Energy: -28.925966910252214 Kcal/mole
 H     -3.3504386276    -6.0295607215    -5.9069733905
 F     -3.0616676105    -5.4215169448    -6.5296956925
 H     -2.5377389818    -4.0563941125    -5.7009441686
 F     -2.3309038548    -3.4801061202    -5.0183019635
 H     -2.6959954448    -4.2296043157    -3.5694270959
 F     -2.9798583537    -4.8429352026    -2.9496399775
 H     -3.5320742642    -6.1805023387    -3.7905863503
 F     -3.7572737136    -6.7607908959    -4.4639654399
          8
Energy: -28.927183560627213 Kcal/mole
 H     -3.3567989818    -6.0292494607    -5.9096592992
 F     -3.0613302084    -5.4215334565    -6.5295532112
 H     -2.5365865432    -4.0665107222    -5.6926194693
 F     -2.3309649890    -3.4795694574    -5.0187435696
 H     -2.7075629507    -4.2283509981    -3.5733566347
 F     -2.9792447243    -4.8430016882    -2.9494315246
 H     -3.5274396851    -6.1836605854    -3.7786409686
 F     -3.7551439017    -6.7620699405    -4.4527940725
          8
Energy: -28.928088537999116 Kcal/mole
 H     -3.3684158112    -6.0265620109    -5.9046921676
 F     -3.0715743582    -5.4177540962    -6.5228564458
 H     -2.5416888007    -4.0669569802    -5.6906503905
 F     -2.3306943260    -3.4795457844    -5.0188480247
 H     -2.6979099475    -4.2230276778    -3.5568431610
 F     -2.9878523076    -4.8347447990    -2.9382765992
 H     -3.5401126832    -6.1815711427    -3.7762863672
 F     -3.7544716285    -6.7621807806    -4.4529189787
          8
Energy: -28.92810919335514 Kcal/mole
 H     -3.3843599449    -6.0190768157    -5.9043864186
 F     -3.0839459063    -5.4109765057    -6.5215204546
 H     -2.5482173388    -4.0628862273    -5.6921112818
 F     -2.3303480021    -3.4797617285    -5.0187705278
 H     -2.7017322840    -4.2264996700    -3.5620228276
 F     -2.9876495415    -4.8345606178    -2.9380018298
 H     -3.5499337767    -6.1791214250    -3.7689128963
 F     -3.7690826905    -6.7561717942    -4.4470541979
          8
Energy: -28.92891133885277 Kcal/mole
 H     -3.3834890042    -6.0186699507    -5.9035629120
 F     -3.0839921077    -5.4109980890    -6.5215641397
 H     -2.5428134777    -4.0635672912    -5.6932457643
 F     -2.3306346645    -3.4797255996    -5.0187103461
 H     -2.6981694055    -4.2231794548    -3.5571147341
 F     -2.9878385440    -4.8347367476    -2.9382621928
 H     -3.5402505682    -6.1795980850    -3.7717156051
 F     -3.7695963623    -6.7561465085    -4.4469055207
          8
Energy: -28.92866979784253 Kcal/mole
 H     -3.3758430580    -6.0195892448    -5.8959670572
 F     -3.0811061057    -5.4134291240    -6.5177299034
 H     -2.5444439668    -4.0610085542    -5.6949381692
 F     -2.3305481708    -3.4798613347    -5.0186205679
 H     -2.7058724868    -4.2187529735    -3.5562782998
 F     -2.9874299133    -4.8349715622    -2.9383065637
 H     -3.5470693811    -6.1782916755    -3.7705536108
 F     -3.7692346401    -6.7562158105    -4.4469671618
          8
Energy: -28.930025838890487 Kcal/mole
 H     -3.3798223908    -6.0208298830    -5.8990858528
 F     -3.0808950112    -5.4133633110    -6.5175644585
 H     -2.5471761131    -4.0643667805    -5.6911627362
 F     -2.3304032367    -3.4796831886    -5.0188208459
 H     -2.7008515328    -4.2243131581    -3.5602429934
 F     -2.9869626074    -4.8376633162    -2.9415095803
 H     -3.5433698837    -6.1754162214    -3.7742532118
 F     -3.7694308899    -6.7563683467    -4.4467709065
          8
Energy: -28.929732710111978 Kcal/mole
 H     -3.3739141961    -6.0228860817    -5.8982837151
 F     -3.0812084273    -5.4132542345    -6.5176070101
 H     -2.5459753763    -4.0630157047    -5.6927203386
 F     -2.3304669331    -3.4797548600    -5.0187382187
 H     -2.7028805425    -4.2243939287    -3.5612569203
 F     -2.9868549731    -4.8376590315    -2.9414557938
 H     -3.5480469228    -6.1766929318    -3.7716020885
 F     -3.7691827837    -6.7563006201    -4.4469115424
          8
Energy: -28.931026857173975 Kcal/mole
 H     -3.3841262610    -6.0191376255    -5.8993063510
 F     -3.0946047237    -5.4105944229    -6.5211917505
 H     -2.5505655975    -4.0612051230    -5.6928004396
 F     -2.3302234324    -3.4798509072    -5.0187339695
 H     -2.7011757011    -4.2251002292    -3.5611717660
 F     -2.9869454110    -4.8376215639    -2.9414603111
 H     -3.5423520504    -6.1763302421    -3.7738073948
 F     -3.7694848836    -6.7563198600    -4.4467945560
          8
Energy: -28.931324224916978 Kcal/mole
 H     -3.3860931005    -6.0189219799    -5.9000147425
 F     -3.0945003874    -5.4106058624    -6.5211541720
 H     -2.5509526280    -4.0607430897    -5.6930720682
 F     -2.3302029014    -3.4798754170    -5.0187195603
 H     -2.7018989513    -4.2249206586    -3.5613273015
 F     -2.9869070443    -4.8376310897    -2.9414520603
 H     -3.5418403958    -6.1783742604    -3.7722239499
 F     -3.7695120257    -6.7562114295    -4.4468785541
