          8
Energy: -28.93094350048176 Kcal/mole
 H     -5.4108068936    -6.5344303427    -3.3908100923
 F     -4.6236233742    -6.9352720723    -3.6368934412
 H     -3.6945162403    -7.1428293859    -2.2570352687
 F     -3.4112873294    -7.1309381306    -1.3849521407
 H     -4.6164174213    -6.4031407539    -0.4765757560
 F     -5.3979493355    -5.9911089883    -0.2309608315
 H     -6.3357290992    -5.8020139221    -1.6050364347
 F     -6.6233909160    -5.8228430935    -2.4754994291
