          8
Energy: -28.9317050780042 Kcal/mole
 H     -3.0856839445    -6.0701513164    -6.0255380323
 F     -2.7853287909    -5.4452657610    -6.6256995308
 H     -2.4824327294    -4.0361348283    -5.7738277127
 F     -2.4045150917    -3.4254995077    -5.0941643056
 H     -2.8904675895    -4.1695817585    -3.6758312518
 F     -3.1943977217    -4.7932647968    -3.0762189251
 H     -3.4904784784    -6.2039953728    -3.9264276130
 F     -3.5648560245    -6.8162865985    -4.6049970166
