          8
Energy: -28.844517664080627 Kcal/mole
 H     -4.4254502054    -5.8304932272    -5.8167542510
 F     -4.4698117581    -5.1010036593    -6.3706188762
 H     -3.0696210039    -4.2338880818    -6.1933063295
 F     -2.2510660519    -3.9105253511    -5.9358314085
 H     -1.6379740180    -5.0088568272    -4.8151068176
 F     -1.5730456252    -5.7334755114    -4.2568944330
 H     -2.9747501729    -6.6183838279    -4.3819454964
 F     -3.8038210156    -6.9220291358    -4.6295945723
          8
Energy: -28.666845713838228 Kcal/mole
 H     -4.2260493122    -5.8634782607    -5.8972172421
 F     -4.3873498359    -5.0550415075    -6.2988403952
 H     -3.3650486060    -3.9041015987    -5.6571027313
 F     -2.7596698819    -3.4517225233    -5.1377196622
 H     -2.1785689924    -4.6357456449    -4.1020058454
 F     -2.0207919787    -5.4254646969    -3.6634408755
 H     -3.0050936105    -6.7252503291    -4.2929522328
 F     -3.6050320279    -7.0721222787    -4.8934876155
          8
Energy: -28.889085313918315 Kcal/mole
 H     -4.1600795557    -5.9172366930    -6.1809472451
 F     -4.3286845632    -5.1409072007    -6.6389580209
 H     -3.4174238400    -3.9588129171    -5.9095328133
 F     -2.8234153498    -3.5192495482    -5.3665531099
 H     -2.1539985984    -4.6221622363    -4.2629997981
 F     -1.9823038164    -5.4042056110    -3.8159896618
 H     -2.9389039909    -6.6021917356    -4.5211383602
 F     -3.5136210468    -7.0281917956    -5.0948222928
          8
Energy: -28.788567436718665 Kcal/mole
 H     -4.0285272233    -5.9391697915    -6.2887754533
 F     -4.2547876164    -5.1222968283    -6.6386522839
 H     -3.3791730954    -3.9877199315    -5.7687489623
 F     -2.8456174015    -3.5472624245    -5.1669146778
 H     -2.3428988444    -4.7322316582    -4.0800308853
 F     -2.1717513928    -5.5394646922    -3.6800654136
 H     -2.8493520770    -6.7343381352    -4.6579256558
 F     -3.2996668581    -7.1079512645    -5.3639843131
          8
Energy: -28.8072914502998 Kcal/mole
 H     -3.4564878979    -5.6555907355    -6.6093926669
 F     -3.4047569128    -4.8014111306    -6.9389227987
 H     -3.2221527570    -3.7050638766    -5.6528738232
 F     -3.0923199817    -3.3898585037    -4.8015935971
 H     -2.6764848082    -4.7081239517    -3.8154848166
 F     -2.5488990384    -5.5662365593    -3.5184097017
 H     -3.1053253475    -6.6125577136    -4.6985077765
 F     -3.4127665310    -6.9350595967    -5.4999823263
          8
Energy: -28.771047661462376 Kcal/mole
 H     -3.0183453875    -5.6716036618    -6.8247954969
 F     -3.3135832131    -4.8329046539    -7.0490890554
 H     -3.2544495961    -3.8223794710    -5.7464628599
 F     -3.1067825303    -3.4915080462    -4.9040807981
 H     -2.7043097524    -4.8091361073    -3.9255897657
 F     -2.5120866746    -5.6758591117    -3.6959584915
 H     -2.4758343866    -6.6801236505    -5.0597340947
 F     -2.5011414799    -7.0081647256    -5.9156766185
          8
Energy: -28.876780669673224 Kcal/mole
 H     -2.5182220600    -5.6222655146    -6.6993515231
 F     -2.7156059279    -4.7664619153    -6.9630346817
 H     -3.1165306832    -3.8611150721    -5.6089016006
 F     -3.2374669272    -3.6088105528    -4.7356285308
 H     -2.8835704386    -4.9413549779    -3.7978091170
 F     -2.6652280147    -5.7878398526    -3.5208994877
 H     -2.4173716336    -6.6952087430    -4.8740507193
 F     -2.2947552348    -6.9776800033    -5.7378008022
          8
Energy: -28.786142650026534 Kcal/mole
 H     -2.8521028097    -5.7181279042    -6.8008202542
 F     -3.1195879341    -4.9140970133    -7.1513556088
 H     -3.1418520406    -3.7880505817    -5.8766971636
 F     -3.1262323284    -3.4491933588    -5.0247459871
 H     -2.7057897776    -4.6467120515    -3.9946948272
 F     -2.4553172349    -5.4370126100    -3.6028051328
 H     -2.3570624287    -6.5756272753    -4.8356516269
 F     -2.4094851754    -6.9273793533    -5.6808801943
          8
Energy: -28.81017732023284 Kcal/mole
 H     -2.6063256392    -5.6770843349    -6.8721007559
 F     -2.9325580291    -4.8940586288    -7.2204284339
 H     -3.4190340384    -3.8918969686    -5.9213345577
 F     -3.5524773840    -3.5346535135    -5.0873927208
 H     -3.0515548202    -4.7066846787    -4.0230064800
 F     -2.7018130644    -5.4919904183    -3.7038441394
 H     -2.2619744380    -6.5082768703    -4.9505449436
 F     -2.1025870311    -6.8648431211    -5.7802106374
          8
Energy: -28.765064694355658 Kcal/mole
 H     -3.6341565921    -5.8548652771    -6.5674322048
 F     -3.9004349488    -5.1034217338    -7.0205518777
 H     -3.3943131057    -3.8272673289    -6.0207201849
 F     -3.0271809854    -3.3276541772    -5.3450799663
 H     -2.4894689400    -4.3809915361    -4.1637617489
 F     -2.2845911144    -5.1659435266    -3.7362521591
 H     -2.6084283124    -6.4495378456    -4.7942669522
 F     -2.8937416571    -6.9271696477    -5.5232067007
          8
Energy: -28.812753006323874 Kcal/mole
 H     -3.6565347471    -5.8423912590    -6.4886965677
 F     -3.6712889625    -5.0750376742    -6.9905329843
 H     -3.0797214532    -3.8091035433    -6.0792403711
 F     -2.6662586945    -3.2999383084    -5.4383906923
 H     -2.2761464041    -4.3976518503    -4.2587149703
 F     -2.1967174422    -5.1660559026    -3.7646145227
 H     -2.8940709143    -6.4274496730    -4.5892554704
 F     -3.3313754544    -6.8946002713    -5.2460842591
          8
Energy: -28.86841690578649 Kcal/mole
 H     -3.9360692338    -5.7849486471    -6.2100625355
 F     -3.9579518420    -5.0657561064    -6.7785449370
 H     -3.0611711418    -3.8872378663    -6.0129074846
 F     -2.5623137406    -3.4326118767    -5.3921454505
 H     -2.2494838461    -4.4269348477    -4.0958425327
 F     -2.2116697378    -5.1510814015    -3.5345307995
 H     -3.0995801618    -6.3698080274    -4.2784690078
 F     -3.6210980839    -6.7839908175    -4.9088345155
          8
Energy: -28.857566575884732 Kcal/mole
 H     -3.9484214740    -5.7595869633    -6.2757878257
 F     -3.8419349016    -5.0785485461    -6.8805491705
 H     -2.9858838589    -3.8323256155    -6.1235174215
 F     -2.5332696605    -3.3495091563    -5.4887594722
 H     -2.4071991252    -4.3111844698    -4.1246847347
 F     -2.4670848608    -4.9952500004    -3.5169372144
 H     -3.3363911190    -6.2661910395    -4.2453410570
 F     -3.8082448510    -6.7103324737    -4.8941718839
          8
Energy: -28.8498532712008 Kcal/mole
 H     -4.2659879485    -5.7357631101    -6.1614806775
 F     -4.1301150780    -5.0900525062    -6.7982580162
 H     -3.1693268148    -3.9136429188    -6.1047983789
 F     -2.6707091513    -3.4214442552    -5.5131820327
 H     -2.7814091188    -4.1892500817    -4.0489680676
 F     -2.9347190974    -4.7985733237    -3.3810532248
 H     -3.7568830045    -6.1004201392    -4.0983102213
 F     -4.1802544526    -6.6244676440    -4.7204193995
          8
Energy: -28.825114403529653 Kcal/mole
 H     -4.0901842004    -5.7046364230    -6.2105195671
 F     -3.7005334507    -5.1975374339    -6.8677196192
 H     -2.8995149749    -3.9655652964    -6.1420727894
 F     -2.4852075863    -3.4123625191    -5.5394078121
 H     -2.8065608315    -4.0262576948    -3.9956703259
 F     -3.1451700732    -4.5374507071    -3.3138239461
 H     -4.0337731510    -5.7724151484    -4.0418493600
 F     -4.4367532108    -6.2987750440    -4.6754433401
          8
Energy: -28.841071075349134 Kcal/mole
 H     -4.4239060402    -5.3879578639    -6.1885916163
 F     -4.0474723187    -4.8706639251    -6.8455494797
 H     -3.0164164137    -3.7671901653    -6.1000860527
 F     -2.5581832388    -3.3489262316    -5.4248330339
 H     -2.8495589418    -4.0809024393    -3.9829695960
 F     -3.1498216555    -4.6388262599    -3.3200576010
 H     -4.2624601091    -5.6747315993    -4.0575236431
 F     -4.7788911542    -6.0879493052    -4.6926922059
          8
Energy: -28.865515503769217 Kcal/mole
 H     -4.0947290058    -5.6806265094    -6.0902611866
 F     -3.6880992897    -5.2538258614    -6.7926730891
 H     -2.7910738994    -4.0043510661    -6.0936361179
 F     -2.4455772222    -3.4228329462    -5.4744772351
 H     -3.0485769065    -3.8135837817    -3.9410704659
 F     -3.5057589551    -4.2383211638    -3.2691540048
 H     -4.2934675195    -5.5465448174    -3.9781747670
 F     -4.5979616484    -6.1462073097    -4.6015343909
          8
Energy: -28.787270210939766 Kcal/mole
 H     -3.8512344107    -5.9939190539    -5.9551527192
 F     -3.5052829451    -5.5376111961    -6.6713857276
 H     -2.7681805667    -4.1530768134    -6.0866334687
 F     -2.4965982358    -3.4948712066    -5.5087948956
 H     -2.8567809173    -3.9499008749    -3.9512567867
 F     -3.1299406700    -4.4345636798    -3.2223022511
 H     -3.9443701741    -5.8276875859    -3.7990807951
 F     -4.2499513636    -6.4341893977    -4.4152501622
          8
Energy: -28.858901741265754 Kcal/mole
 H     -3.9074920823    -5.9522478655    -5.9409257598
 F     -3.4989184912    -5.6000967267    -6.6825093330
 H     -2.4734344276    -4.4325026718    -6.0716533809
 F     -2.0169000951    -3.8635362490    -5.5160072587
 H     -2.3976454181    -4.2361445904    -3.9088978560
 F     -2.8018220521    -4.6363234912    -3.1896016055
 H     -3.8273018102    -5.7858363335    -3.8177095536
 F     -4.3128630101    -6.3182477566    -4.3848580331
          8
Energy: -28.774088852071998 Kcal/mole
 H     -3.8441935037    -5.8642284533    -5.9919353800
 F     -3.3172027174    -5.5832569005    -6.6877979366
 H     -2.2532595586    -4.4613791449    -6.0371105767
 F     -1.7837453249    -3.9439059521    -5.4432529516
 H     -2.2895435166    -4.3861972036    -3.9386556506
 F     -2.7427631555    -4.7302495314    -3.2195527688
 H     -3.9982090383    -5.7289353023    -3.8529073142
 F     -4.4826043318    -6.1868776034    -4.4826207795
          8
Energy: -28.880583440223944 Kcal/mole
 H     -3.7565869690    -5.7806639306    -6.1305197888
 F     -3.2619572115    -5.4010736339    -6.8029345489
 H     -2.2757023820    -4.2531027970    -6.0812336800
 F     -1.8471617090    -3.7313780946    -5.4607135542
 H     -2.3139885324    -4.2093656075    -3.9211864036
 F     -2.7279583365    -4.6684344854    -3.2438579998
 H     -3.7998675618    -5.7484862223    -3.9684177495
 F     -4.2810427803    -6.2180724175    -4.5919947009
          8
Energy: -28.827445908801934 Kcal/mole
 H     -3.6450297347    -5.8074391043    -6.0846456532
 F     -3.1957658267    -5.3588233914    -6.7463063541
 H     -2.0149216647    -4.3765188187    -6.0282261952
 F     -1.5151393396    -3.9881039065    -5.3647199905
 H     -2.1559323357    -4.4063326246    -3.8766874596
 F     -2.6800585775    -4.7785025390    -3.2227224472
 H     -3.7389498063    -5.8840798584    -3.9837728721
 F     -4.1987605816    -6.3403554327    -4.6328303821
          8
Energy: -28.887111664851744 Kcal/mole
 H     -3.6143051302    -5.7669832434    -6.1485422582
 F     -3.1063528506    -5.3362774038    -6.7789119603
 H     -1.9452276345    -4.4035300529    -5.9881978688
 F     -1.4223201846    -4.0214380771    -5.3389964202
 H     -1.9574187163    -4.5776833403    -3.8597308283
 F     -2.4374835587    -5.0187804000    -3.2148586464
 H     -3.6636446793    -5.8855849638    -3.9815093629
 F     -4.2147239049    -6.2400698112    -4.6230241173
          8
Energy: -28.869426096214625 Kcal/mole
 H     -3.3670550965    -5.9378770994    -6.1094231289
 F     -2.9385420227    -5.4057998665    -6.7211088030
 H     -1.7714772945    -4.5555673851    -5.9132735008
 F     -1.2194035271    -4.2089438585    -5.2683272347
 H     -1.7499878534    -4.7979087925    -3.7917632356
 F     -2.2155981854    -5.2737680564    -3.1611651230
 H     -3.3684011420    -6.2548551275    -3.9733482297
 F     -3.8557288130    -6.6239961682    -4.6568214428
          8
Energy: -28.830838272992906 Kcal/mole
 H     -3.2947004318    -5.9188324674    -6.0950276454
 F     -2.8173580517    -5.4514786758    -6.7232104896
 H     -1.7501937748    -4.4836479671    -5.9019401798
 F     -1.3033659157    -4.0557602117    -5.2250753978
 H     -1.7896389619    -4.7424260065    -3.7262429015
 F     -2.2313276953    -5.2565678580    -3.1086198617
 H     -3.3936527613    -6.1291729437    -3.9527250992
 F     -3.9033867250    -6.4985533765    -4.6195222064
          8
Energy: -28.891099794963225 Kcal/mole
 H     -3.2529042973    -6.0495464109    -5.9762684263
 F     -2.8969754402    -5.4574048651    -6.5792377775
 H     -2.0223960396    -4.3163877734    -5.7182034335
 F     -1.6248958933    -3.8497349445    -5.0362080003
 H     -2.0222102473    -4.6011962770    -3.5730076178
 F     -2.3891936292    -5.1644969299    -2.9493854791
 H     -3.2464693366    -6.3124543044    -3.8084179814
 F     -3.6229874358    -6.8006402163    -4.4872387503
          8
Energy: -28.895210867035814 Kcal/mole
 H     -3.4094987639    -6.0224032132    -5.9491796393
 F     -3.1148379354    -5.4034439487    -6.5582390987
 H     -2.1431493511    -4.3359392891    -5.7389223501
 F     -1.6955991214    -3.8837901684    -5.0785065988
 H     -2.0243388365    -4.6414070808    -3.6200430193
 F     -2.3644258602    -5.2259708916    -3.0007571666
 H     -3.2807257966    -6.3783117227    -3.8496420842
 F     -3.6839558305    -6.8412514362    -4.5308038575
          8
Energy: -28.885303554695383 Kcal/mole
 H     -3.3589464930    -5.9021935775    -5.8605267220
 F     -3.0014964317    -5.3048853293    -6.4574700277
 H     -2.0358324333    -4.2055372531    -5.6432987214
 F     -1.5741710289    -3.7632139580    -4.9859496130
 H     -1.9158207561    -4.5683657873    -3.5594253889
 F     -2.2759277632    -5.1727219521    -2.9712370096
 H     -3.2463958966    -6.2645788813    -3.7732713014
 F     -3.6773784404    -6.7240611516    -4.4396188760
          8
Energy: -28.86173785035018 Kcal/mole
 H     -3.3384926966    -5.8798232160    -5.7832741329
 F     -2.9989713818    -5.2360565399    -6.3411081078
 H     -2.1069925032    -4.1224987471    -5.4233981879
 F     -1.6758001136    -3.7279353288    -4.7167994106
 H     -2.0704595956    -4.6043582315    -3.3638408081
 F     -2.4014303399    -5.2304573690    -2.7813056278
 H     -3.2633707552    -6.3528679823    -3.7029202772
 F     -3.6643724247    -6.7601118276    -4.4200249499
          8
Energy: -28.883982259814672 Kcal/mole
 H     -2.9973761393    -6.0412343014    -5.8144298049
 F     -2.7559456545    -5.3506882240    -6.3673732342
 H     -2.0975696922    -4.1535557281    -5.4159214560
 F     -1.8207488267    -3.6618450584    -4.6930937962
 H     -2.2841319763    -4.4970474234    -3.3493433269
 F     -2.6227957635    -5.1352828989    -2.7846741166
 H     -3.1344612179    -6.4345225206    -3.7177614860
 F     -3.3005935308    -6.9687230468    -4.4443417309
          8
Energy: -28.859630770534835 Kcal/mole
 H     -3.3134863941    -5.8901005003    -5.8302004289
 F     -3.1197444352    -5.1718229350    -6.3663257804
 H     -2.4824039377    -3.9945138351    -5.3537595070
 F     -2.1710693464    -3.5207987629    -4.6329587005
 H     -2.4829500243    -4.4628253939    -3.2594651037
 F     -2.7149012058    -5.1679343448    -2.7210331054
 H     -3.2756468208    -6.3979922049    -3.7213186096
 F     -3.5017517697    -6.8553218203    -4.4832996953
          8
Energy: -28.884027290868488 Kcal/mole
 H     -3.1684818057    -5.9625048460    -5.7483970403
 F     -2.9308016214    -5.2638255821    -6.2926804373
 H     -2.3056828874    -4.0253495901    -5.3407304416
 F     -2.0387702383    -3.5342529951    -4.6137704894
 H     -2.3339812403    -4.4667140380    -3.2576133580
 F     -2.5278815902    -5.1850454665    -2.7216174503
 H     -3.1301633904    -6.4142975272    -3.6779676761
 F     -3.4169560609    -6.9166089858    -4.3895308586
          8
Energy: -28.84234114627131 Kcal/mole
 H     -3.2300022457    -5.8807379330    -5.7672050226
 F     -2.9094167206    -5.2264368223    -6.3239850309
 H     -2.2299212732    -4.0341696082    -5.3998796192
 F     -1.9670065990    -3.5482921863    -4.6679725178
 H     -2.2821064732    -4.4744642154    -3.3223238847
 F     -2.5161946972    -5.1350029688    -2.7309016509
 H     -3.2631403047    -6.3271499594    -3.6514954659
 F     -3.5959967747    -6.7668240584    -4.3841497207
          8
Energy: -28.85792591312969 Kcal/mole
 H     -3.2798941193    -5.7960804126    -5.7837098704
 F     -3.0360354153    -5.1213464425    -6.3548105639
 H     -2.3049562110    -3.9909259521    -5.4050868905
 F     -1.9708769916    -3.5161024139    -4.6952822112
 H     -2.3856822481    -4.3486036146    -3.2663852618
 F     -2.6983809020    -4.9998868571    -2.7016386905
 H     -3.2837919772    -6.2422998924    -3.6554746196
 F     -3.5515570735    -6.7150322992    -4.3941998221
          8
Energy: -28.874685749145073 Kcal/mole
 H     -3.1077859273    -5.8830492164    -5.8228465000
 F     -2.7973952384    -5.2173502606    -6.3718378666
 H     -2.1561014865    -4.0310764555    -5.4238025741
 F     -1.8998957789    -3.5272253951    -4.7017348873
 H     -2.3903707344    -4.3291431187    -3.3004080043
 F     -2.7339757595    -4.9692980656    -2.7409205330
 H     -3.2880210466    -6.1909432769    -3.6928348337
 F     -3.5133090205    -6.7123926584    -4.4127132063
          8
Energy: -28.89326870339886 Kcal/mole
 H     -3.0213740757    -5.8330314494    -5.7915842397
 F     -2.6958923976    -5.1653915750    -6.3293645621
 H     -2.1369551384    -3.9744382646    -5.3420119201
 F     -1.9420852738    -3.4684062859    -4.6025213032
 H     -2.4558897711    -4.3178259150    -3.2598631894
 F     -2.8114250581    -4.9618479527    -2.7123969579
 H     -3.2970642226    -6.2213811217    -3.7139588300
 F     -3.4791114034    -6.7298799663    -4.4550234351
          8
Energy: -28.872618400642153 Kcal/mole
 H     -2.9583043937    -5.9757350447    -5.8164435086
 F     -2.6354559429    -5.3097984992    -6.3579104005
 H     -2.1732523031    -4.0109947624    -5.4423801232
 F     -2.0186861817    -3.4554418522    -4.7293869409
 H     -2.5038291088    -4.2916510525    -3.3661600280
 F     -2.8681917952    -4.9296552684    -2.8174529538
 H     -3.3453887675    -6.2393315946    -3.7294529239
 F     -3.4981370487    -6.7945859773    -4.4430701414
          8
Energy: -28.882075557688324 Kcal/mole
 H     -2.9491519840    -5.9987100955    -5.8691783596
 F     -2.5406802711    -5.3808375075    -6.4098014490
 H     -2.1030208745    -4.0759510486    -5.4443351301
 F     -1.9934638909    -3.5057510716    -4.7345758375
 H     -2.6289475501    -4.2953969907    -3.4056577071
 F     -3.0385110205    -4.9255045463    -2.8801948331
 H     -3.4592427389    -6.2092728494    -3.8193045901
 F     -3.5712826368    -6.7666649381    -4.5387836522
          8
Energy: -28.872042635835214 Kcal/mole
 H     -2.9477710121    -6.0254875825    -5.8613608960
 F     -2.5504087278    -5.3989548818    -6.4002940921
 H     -2.0306136126    -4.1244610395    -5.4940655987
 F     -1.8555008865    -3.5779610370    -4.7788297771
 H     -2.5356312697    -4.3005060385    -3.4235629135
 F     -2.9688504664    -4.8902739133    -2.8709473315
 H     -3.3886189585    -6.2176417168    -3.7866002978
 F     -3.5333535827    -6.7817293614    -4.4949406240
          8
Energy: -28.854154748586836 Kcal/mole
 H     -2.9193199604    -6.0134556097    -5.7834757338
 F     -2.5148626730    -5.4353249913    -6.3691960517
 H     -2.0037878350    -4.1296746130    -5.4361126545
 F     -1.8613889121    -3.5576440968    -4.7336935237
 H     -2.3765042275    -4.3280125368    -3.3292549774
 F     -2.7089574949    -4.9624820473    -2.7567060578
 H     -3.3395604942    -6.2158217593    -3.6787847288
 F     -3.5845870381    -6.7291959355    -4.3980190078
          8
Energy: -28.900681888603287 Kcal/mole
 H     -3.0879013463    -5.9556893361    -5.8744312976
 F     -2.7615762888    -5.3007978378    -6.4271681992
 H     -2.1368592629    -4.0773183191    -5.4743644301
 F     -1.8727897364    -3.5655172360    -4.7607707527
 H     -2.3885599796    -4.3468067695    -3.3591234376
 F     -2.7427742570    -4.9760891669    -2.7939465536
 H     -3.2937569557    -6.2564769200    -3.7358150500
 F     -3.5279620443    -6.7710236739    -4.4578113203
          8
Energy: -28.90329830222248 Kcal/mole
 H     -3.1172754031    -5.9368265792    -5.8818176378
 F     -2.7024082495    -5.3280645813    -6.4278790582
 H     -1.9916668051    -4.1421710600    -5.4579317520
 F     -1.7114418140    -3.6564395997    -4.7323782371
 H     -2.1765071939    -4.4931793397    -3.3603229933
 F     -2.5721051338    -5.1143149625    -2.8138965956
 H     -3.3424637722    -6.2586239514    -3.7751102889
 F     -3.6426788001    -6.7292388009    -4.5026277117
          8
Energy: -28.87200434415456 Kcal/mole
 H     -3.2856786334    -5.8738990229    -5.8149190882
 F     -3.0092104486    -5.1942443606    -6.3649407995
 H     -2.1125914934    -4.0748498965    -5.4334957969
 F     -1.7222935215    -3.6704035606    -4.7089409995
 H     -2.1389817361    -4.5696418030    -3.3743013269
 F     -2.4986196613    -5.2102992920    -2.8255686556
 H     -3.2786364136    -6.3700282226    -3.7425677626
 F     -3.6063040174    -6.8155937150    -4.4740008309
          8
Energy: -28.898801703362153 Kcal/mole
 H     -3.3478458286    -5.8340162962    -5.8541586065
 F     -3.0149109473    -5.1748009744    -6.3977379699
 H     -2.1808482577    -4.0981798184    -5.4272028063
 F     -1.7880097044    -3.6768867739    -4.7137050546
 H     -2.1486889644    -4.5901963703    -3.3402600981
 F     -2.4602505542    -5.2529388536    -2.7883626650
 H     -3.2917597187    -6.3343092301    -3.7630189930
 F     -3.6952136462    -6.7464605426    -4.4759321882
          8
Energy: -28.871666557229105 Kcal/mole
 H     -3.3813112173    -5.8183469204    -5.8297665817
 F     -3.0303790395    -5.1788063160    -6.3853954344
 H     -2.1828231508    -4.0557278697    -5.4480455974
 F     -1.7572776729    -3.6848332501    -4.7253857692
 H     -2.1077454527    -4.6168235452    -3.3639132344
 F     -2.4247418803    -5.2792151701    -2.8146959730
 H     -3.3282635677    -6.3329794453    -3.7515301533
 F     -3.7407847148    -6.7268220038    -4.4695854035
          8
Energy: -28.877086720450052 Kcal/mole
 H     -3.3848492778    -5.7914021218    -5.9167216032
 F     -3.0131987298    -5.1585072922    -6.4664569986
 H     -2.0002762845    -4.2316596825    -5.5090671698
 F     -1.5315311169    -3.8716117550    -4.8079734117
 H     -2.0113280569    -4.6970879187    -3.4211540023
 F     -2.4060770927    -5.3049617686    -2.8594142214
 H     -3.3260312717    -6.2948715099    -3.8061560066
 F     -3.7380931633    -6.6746865617    -4.5319896817
          8
Energy: -28.879081326416184 Kcal/mole
 H     -3.3749917953    -5.7493059959    -5.8664825548
 F     -2.9319526380    -5.1883255691    -6.4408572285
 H     -2.0025500306    -4.1780267406    -5.4727513374
 F     -1.5826712175    -3.7979742419    -4.7515364731
 H     -2.0911768691    -4.6312309262    -3.3818693318
 F     -2.5260512009    -5.2222578526    -2.8319052531
 H     -3.4905160967    -6.1845067182    -3.7764177748
 F     -3.9227375694    -6.5649821971    -4.4900787647
          8
Energy: -28.913239030239993 Kcal/mole
 H     -3.4078974610    -5.7377147712    -5.8436003846
 F     -2.9478970402    -5.1856600009    -6.4132705905
 H     -1.9072640224    -4.2751929531    -5.4800594236
 F     -1.4496647973    -3.9391829184    -4.7599280427
 H     -2.0186053419    -4.6926273852    -3.3767095344
 F     -2.4706860379    -5.2437775020    -2.7998684879
 H     -3.4987667112    -6.1923187638    -3.7339213910
 F     -3.9401717594    -6.5328353490    -4.4620003968
          8
Energy: -28.88065941081905 Kcal/mole
 H     -3.4172582580    -5.7680261876    -5.8780154466
 F     -2.9299842402    -5.2332232623    -6.4414325768
 H     -1.8704455673    -4.3145461212    -5.4989799198
 F     -1.4490661617    -3.9426868758    -4.7743772024
 H     -1.9442040764    -4.7629998615    -3.3945181609
 F     -2.3694328703    -5.3388057156    -2.8213540558
 H     -3.4675982610    -6.1874106214    -3.7412348371
 F     -3.9714924149    -6.4907050350    -4.4447916438
          8
Energy: -28.891749065568774 Kcal/mole
 H     -3.3398722981    -5.7775164854    -5.8295156228
 F     -2.9404520500    -5.1616049375    -6.3790658303
 H     -1.9540246263    -4.1676456273    -5.4514466649
 F     -1.5178661181    -3.8076950779    -4.7295807786
 H     -2.0169453412    -4.6683017988    -3.3923751143
 F     -2.4462766456    -5.2708406549    -2.8506089673
 H     -3.3861850556    -6.3264900299    -3.7949037090
 F     -3.7982692728    -6.6984674884    -4.5247724426
          8
Energy: -28.894808836456804 Kcal/mole
 H     -3.3778076304    -5.7855000001    -5.8594291290
 F     -3.0365187968    -5.1276145547    -6.3994269743
 H     -2.0585338931    -4.1538893587    -5.4689912794
 F     -1.6241541084    -3.7915793372    -4.7472332514
 H     -2.0680361646    -4.6395762017    -3.3938854484
 F     -2.4665361361    -5.2567980420    -2.8451378083
 H     -3.3550201969    -6.3238403510    -3.7993603915
 F     -3.7296799501    -6.7262159032    -4.5332629629
          8
Energy: -28.899155797393377 Kcal/mole
 H     -3.3719173022    -5.7757475146    -5.8765411570
 F     -2.9664842178    -5.1508979284    -6.4114018946
 H     -2.0972631796    -4.0949182289    -5.4481754003
 F     -1.6934901397    -3.6949973842    -4.7285090539
 H     -2.0941191412    -4.6355067084    -3.3851986389
 F     -2.4815087180    -5.2732861580    -2.8522298879
 H     -3.4076973041    -6.2714936259    -3.8133403913
 F     -3.8251839897    -6.6653908003    -4.5284899444
          8
Energy: -28.909724726577167 Kcal/mole
 H     -3.3936304481    -5.8051546413    -5.8532754969
 F     -3.0438134962    -5.1506311610    -6.3918997759
 H     -2.1331989645    -4.1082027447    -5.4325544171
 F     -1.7232979917    -3.7265049947    -4.7064848473
 H     -2.1615984854    -4.6272575054    -3.3734072817
 F     -2.5071166556    -5.2873624989    -2.8388349371
 H     -3.3698809194    -6.3387359354    -3.7936850406
 F     -3.7614142067    -6.7393005213    -4.5197282194
          8
Energy: -28.909964528033356 Kcal/mole
 H     -3.4025562397    -5.8189403209    -5.8478943642
 F     -3.0554705114    -5.1636281814    -6.3873260069
 H     -2.1034623315    -4.1290314376    -5.4398763415
 F     -1.6721883177    -3.7568185171    -4.7213018729
 H     -2.1094842721    -4.6401772441    -3.3800348892
 F     -2.4835958263    -5.2691790524    -2.8275077223
 H     -3.3958272459    -6.3159756536    -3.7645227194
 F     -3.8088911704    -6.7123294028    -4.4808821960
          8
Energy: -28.916435899232255 Kcal/mole
 H     -3.4610128540    -5.7380564202    -5.8197656322
 F     -3.0559760963    -5.1262322617    -6.3697705631
 H     -2.0752167982    -4.1688775966    -5.4318276022
 F     -1.6238686125    -3.7999090588    -4.7239886139
 H     -2.0776934525    -4.6742017198    -3.3664837377
 F     -2.4878262615    -5.2845846456    -2.8186582520
 H     -3.4677738024    -6.2504552632    -3.7576528970
 F     -3.9005710351    -6.6171388349    -4.4781518308
          8
Energy: -28.903495185254997 Kcal/mole
 H     -3.5546413827    -5.6676889155    -5.8284965296
 F     -3.1607011234    -5.0465629514    -6.3761301743
 H     -2.1001822078    -4.1574962083    -5.4325711190
 F     -1.6191642593    -3.8243029235    -4.7265307744
 H     -2.0272435296    -4.7095616370    -3.3786141163
 F     -2.4040734408    -5.3291822272    -2.8174024430
 H     -3.4517215395    -6.2182210318    -3.7618109980
 F     -3.9344439908    -6.5635260132    -4.4608335333
          8
Energy: -28.89393458346092 Kcal/mole
 H     -3.4784161348    -5.7128786504    -5.8255899345
 F     -3.1065259631    -5.0964394826    -6.3935595222
 H     -2.1229963423    -4.1054378765    -5.4451233649
 F     -1.6838382455    -3.7567179485    -4.7195728306
 H     -2.0466908304    -4.6880960824    -3.3772066544
 F     -2.4321288411    -5.3025538328    -2.8161645767
 H     -3.4394748134    -6.2216823647    -3.7528705473
 F     -3.8930424056    -6.5845113071    -4.4624624003
          8
Energy: -28.919351872402842 Kcal/mole
 H     -3.3946067358    -5.7667342852    -5.8644971244
 F     -3.0205943972    -5.1246828809    -6.4018738682
 H     -2.0955425964    -4.1254696097    -5.4375525827
 F     -1.6812813230    -3.7404390415    -4.7157298490
 H     -2.0834762038    -4.6416420059    -3.3601016204
 F     -2.4539980230    -5.2816119575    -2.8178461063
 H     -3.3995428389    -6.2659676314    -3.7697717259
 F     -3.8111288170    -6.6530920295    -4.4920048482
          8
Energy: -28.911170793673676 Kcal/mole
 H     -3.3634263510    -5.8001219865    -5.8870896893
 F     -2.9990959383    -5.1564247111    -6.4291285883
 H     -2.1192946695    -4.1191582089    -5.4547594573
 F     -1.7186109034    -3.7302693605    -4.7273620534
 H     -2.0882404362    -4.6375638459    -3.3585032951
 F     -2.4537452915    -5.2818282944    -2.8179308937
 H     -3.3867523878    -6.2797197522    -3.7865069608
 F     -3.7877558245    -6.6783412119    -4.5084392122
          8
Energy: -28.92394204601257 Kcal/mole
 H     -3.3941318951    -5.7524321671    -5.8616749937
 F     -2.9996337025    -5.1391359153    -6.4176676948
 H     -2.0784635114    -4.1417558021    -5.4486483048
 F     -1.6670995279    -3.7580399556    -4.7244723439
 H     -2.0644240349    -4.6520683421    -3.3716924700
 F     -2.4265826038    -5.2869519421    -2.8179298986
 H     -3.4090359071    -6.2501390023    -3.7710275176
 F     -3.8407801694    -6.6132732950    -4.4939517027
          8
Energy: -28.92116549647986 Kcal/mole
 H     -3.3614661573    -5.7751509208    -5.8818893030
 F     -2.9927550967    -5.1438149737    -6.4353837255
 H     -2.0724184775    -4.1414499388    -5.4673739227
 F     -1.6578412988    -3.7754600216    -4.7358917675
 H     -2.0952650324    -4.6517394683    -3.3773032435
 F     -2.4648105047    -5.2811970857    -2.8222282469
 H     -3.3779542153    -6.3023859955    -3.8008758261
 F     -3.7817535824    -6.6728142383    -4.5361431163
          8
Energy: -28.922302914775855 Kcal/mole
 H     -3.3785946379    -5.7583940920    -5.8775943391
 F     -3.0050888733    -5.1259390870    -6.4265780462
 H     -2.0519739466    -4.1463549973    -5.4611442518
 F     -1.6419798218    -3.7753105659    -4.7296253884
 H     -2.0734529724    -4.6491451531    -3.3602208308
 F     -2.4556986441    -5.2839659835    -2.8200544123
 H     -3.3905525914    -6.2848134570    -3.7905842525
 F     -3.7971446982    -6.6569061393    -4.5234682096
          8
Energy: -28.916312031044043 Kcal/mole
 H     -3.4156514519    -5.7396256924    -5.8680425194
 F     -3.0605638508    -5.0963856789    -6.4167173598
 H     -2.0712652867    -4.1180612248    -5.4638340665
 F     -1.6409564608    -3.7768114852    -4.7294826999
 H     -2.0677810519    -4.6727949987    -3.3856243585
 F     -2.4408651328    -5.3029995345    -2.8337733718
 H     -3.3827456832    -6.2973822558    -3.7865448481
 F     -3.8002410406    -6.6651495479    -4.5154713502
          8
Energy: -28.926393862600804 Kcal/mole
 H     -3.4055987587    -5.7631670048    -5.8621795275
 F     -3.0375372849    -5.1256698217    -6.4090040817
 H     -2.0667148627    -4.1293655819    -5.4644231795
 F     -1.6318259120    -3.7706501597    -4.7411778225
 H     -2.0544320299    -4.6603778903    -3.3873479612
 F     -2.4249280894    -5.2918072994    -2.8351536375
 H     -3.3744390364    -6.2930325789    -3.7935964907
 F     -3.8006816890    -6.6653802882    -4.5150972769
          8
Energy: -28.92077513986871 Kcal/mole
 H     -3.4140177021    -5.7504595817    -5.8660045621
 F     -3.0429659104    -5.1173701407    -6.4159203080
 H     -2.0681761555    -4.1588836562    -5.4641170906
 F     -1.6170193040    -3.8027661587    -4.7496054929
 H     -2.0394021172    -4.6689678446    -3.3845250400
 F     -2.4256199510    -5.2942952400    -2.8361725681
 H     -3.3724083934    -6.3040081541    -3.7881183219
 F     -3.8070564857    -6.6623938876    -4.5116718457
          8
Energy: -28.922148153031202 Kcal/mole
 H     -3.4085372266    -5.7566646551    -5.8695277364
 F     -3.0432566369    -5.1170409759    -6.4157334118
 H     -2.0635604364    -4.1442990280    -5.4565034271
 F     -1.6139513091    -3.7857802450    -4.7422171295
 H     -2.0571924965    -4.6590531058    -3.3797851461
 F     -2.4399052011    -5.2894099840    -2.8347436873
 H     -3.3766542176    -6.2888646223    -3.7932678874
 F     -3.8068312546    -6.6631972170    -4.5113986732
          8
Energy: -28.927014539339638 Kcal/mole
 H     -3.4123474513    -5.7513630570    -5.8659211556
 F     -3.0430545133    -5.1173222134    -6.4159247325
 H     -2.0660481241    -4.1427808408    -5.4703530563
 F     -1.6192860447    -3.7903652741    -4.7512592427
 H     -2.0435125565    -4.6723487315    -3.3851766396
 F     -2.4406308903    -5.2887046818    -2.8344576810
 H     -3.3885617308    -6.2852942049    -3.7936485712
 F     -3.8121478533    -6.6554638457    -4.5178296492
          8
Energy: -28.927828981667204 Kcal/mole
 H     -3.4139198142    -5.7511568095    -5.8667421907
 F     -3.0429711031    -5.1173331544    -6.4158811785
 H     -2.0549990083    -4.1516829910    -5.4727034523
 F     -1.6198721748    -3.7898930356    -4.7511345597
 H     -2.0524671020    -4.6661899134    -3.3846276136
 F     -2.4401558723    -5.2890313929    -2.8344868055
 H     -3.3913816667    -6.2812149338    -3.7941023162
 F     -3.8119982623    -6.6556802416    -4.5178055791
          8
Energy: -28.928619729528464 Kcal/mole
 H     -3.4154093145    -5.7512025663    -5.8678043867
 F     -3.0428920886    -5.1173307271    -6.4158248315
 H     -2.0588955020    -4.1483498947    -5.4720054065
 F     -1.6196654748    -3.7900698486    -4.7511715894
 H     -2.0532043813    -4.6684198058    -3.3876576850
 F     -2.4401167614    -5.2889131022    -2.8343260673
 H     -3.3852485836    -6.2842287166    -3.7961444551
 F     -3.8123236081    -6.6555203674    -4.5176972483
          8
Energy: -28.929754685660384 Kcal/mole
 H     -3.4122796150    -5.7524836066    -5.8671700703
 F     -3.0430581119    -5.1172627709    -6.4158584805
 H     -2.0626571151    -4.1486113063    -5.4695686666
 F     -1.6194659299    -3.7900559814    -4.7513008528
 H     -2.0524190976    -4.6668251158    -3.3853120917
 F     -2.4401584189    -5.2889976969    -2.8344504956
 H     -3.3883002374    -6.2853890114    -3.7937531265
 F     -3.8121617250    -6.6554588165    -4.5178241028
