          8
Energy: 0.8793034946813165 Kcal/mole
 H      3.8310515798     1.5701336132     1.0797099899
 F      2.9511336245     1.5701336132     1.3378444354
 H     -4.7860049850     2.7869012525     4.5333447465
 F     -3.8690049850     2.7869012525     4.5333447465
 H     -0.7261437654     0.9029048367    -1.7173774465
 F      0.1811383220     0.9029048367    -1.8505247860
 H      5.1558194482    -2.3826080758    -1.7314394050
 F      4.2463041264    -2.4995306120    -1.7314394050
