          6
Energy: -0.24598850986917462 Kcal/mole
 He     1.3202160004     0.6452852077    -0.0832674023
 He     0.5643672126     2.7040027078    -1.9086277132
 He    -1.3868312468     1.5746966784    -0.1483914911
 He     2.3719785761     0.6440655048    -2.7450829746
 He     1.6209140633    -1.8243915501    -1.5170244114
 He    -0.3865119947     0.0336340960    -2.3370861877
