          6
Energy: -0.24585731845438172 Kcal/mole
 He     1.0389392416     4.7938984898     3.4398731428
 He     3.5478740449     4.4214921560     4.7504243895
 He     1.9690055917     2.1544753086     3.9802274946
 He    -0.7810166762     2.7921928100     4.3868978869
 He     1.1256377882     3.9067031766     6.1684442172
 He     3.3674133771     2.1447189436     6.4900288362
