          6
Energy: -0.009241362523351735 Kcal/mole
 He     7.2947232145     3.9155204869    -0.6993638869
 He     0.1939984746     3.7754835935    -0.9716111128
 He     4.4437566096     6.9413685475    -4.6137724900
 He     1.9225207347    -4.9221181647     4.2233865790
 He    -2.4059555810     6.5303826589    -1.2054625132
 He    -6.9102756115     6.1731871197    -3.8240543794
          6
Energy: -0.01946788999651842 Kcal/mole
 He    -5.4101636943     3.0872618843    -4.0056426870
 He    -0.2373891780    -2.6483902239    -1.9594235986
 He     1.5182201039    -5.1567562298     4.5133188250
 He     5.7670694975     3.6657977977     5.9819318149
 He    -5.0240903272     5.5801896543    -1.8688003603
 He     0.7894948493    -6.1141543128    -3.4975448006
          6
Energy: -0.021958508620526278 Kcal/mole
 He    -3.5274632486     2.0033170409     5.2847974549
 He     5.4141953932    -1.8400418375    -5.6353375462
 He     6.8194907434    -0.8736271360    -1.4967536326
 He    -4.9807552594    -0.2569987422     4.7172067752
 He    -6.2147647597    -0.2229311663    -1.1939605177
 He    -4.8751047579    -1.9606671304    -6.9236003675
          6
Energy: -0.0033051853401722957 Kcal/mole
 He    -1.8797888433    -2.5713275664    -4.0513748119
 He    -4.5554680758    -6.7843590685    -6.2871955960
 He    -1.0891381774     7.3934878120    -5.7555237985
 He    -2.8038011434     2.7553186932    -3.8691556319
 He     2.7906578082     1.0922333760     4.7008008357
 He     5.1698037059     4.0641754239    -0.1384707194
          6
Energy: -0.010766765505536936 Kcal/mole
 He    -6.3858465300     2.6905515925    -2.2033775703
 He    -7.3811503815    -5.9491569066     2.5918071348
 He    -3.5817550105    -3.6250184425     1.4367616289
 He     3.4101150302    -3.5623257169    -4.1259794746
 He     1.3784953456    -3.3440053216     3.0224015769
 He     1.2781208055    -6.2018129184    -5.7860474232
          6
Energy: -0.018135191099919953 Kcal/mole
 He    -6.3013794204     5.5036285953    -2.3557353430
 He    -2.7885972259     2.8130918732    -3.8015811285
 He    -0.0219923870     2.4024314832    -0.8121112511
 He     2.3151900121     1.0996652346     3.0607320295
 He    -0.6318958350    -4.6338406831     6.7163131180
 He    -5.0167931538     0.3037670643    -2.1789104893
          6
Energy: -0.025289978065500755 Kcal/mole
 He     7.3825240881    -4.9273501734    -3.5945110134
 He    -4.7613088111    -7.0923663373     4.1281069226
 He     4.7729996159    -3.2294908886    -3.0246699943
 He     2.4145265784     4.9119080088    -6.2256307838
 He    -6.8421664211     3.2853849659     7.4701291763
 He     3.8719584845    -1.4819703366     0.0140387977
          6
Energy: -0.003427115590808183 Kcal/mole
 He    -1.9106526788    -4.8175318080    -7.1039546225
 He    -2.0249826207    -5.6967436740     6.5635326628
 He    -6.6893155603    -0.1166838225     1.2488326390
 He     3.8450061512     5.1508075818    -3.9864865939
 He     2.5796621641     3.2159308563     1.6118495733
 He    -3.1830627734    -3.1732231212     1.5937783275
          6
Energy: -0.1324998987364933 Kcal/mole
 He    -4.9662756179    -7.0859628917    -5.9821749709
 He    -5.6855145896    -4.1854503383    -5.3895239924
 He    -4.2028404521    -2.5368614464    -3.5372554382
 He     4.4803086028    -4.7431224966    -2.3136582172
 He    -3.4829839216    -5.6762143047    -4.4237862323
 He    -5.8738055341    -5.5861163452    -2.8013507449
          6
Energy: -0.2459481271739781 Kcal/mole
 He    -5.8379068185    -6.8360761615    -5.4529879137
 He    -5.7221524533    -3.9919280312    -5.2944051817
 He    -3.8913259302    -3.2176873288    -3.2426271585
 He    -3.1306286873    -3.0494105654    -6.0132535374
 He    -3.3642769959    -5.6074837904    -4.7406804743
 He    -5.5440705605    -5.5462537619    -2.9103646393
