          6
Energy: -0.0028178876544273416 Kcal/mole
 He    -4.9587297517     0.7942103532     5.7731073713
 He    -4.8054130601     5.1048349065     3.9437107913
 He     1.4829908064     5.7282910014    -1.0651505230
 He     3.5451563850    -6.3353333245     3.6845354861
 He     2.9320628972     3.5573520556     6.0144812725
 He     3.9190790361    -0.2685587575    -2.4216382591
          6
Energy: -8.381596874645409E-4 Kcal/mole
 He     1.2611292218     0.9694089922     3.4323031179
 He     7.0544324677    -0.5363793119    -6.6230525419
 He     4.4235947819    -6.6697169346     4.6991685766
 He    -6.4357518666     6.9863945577     1.0190260683
 He    -2.8951029851     4.4887521141    -7.1633313930
 He     2.8470147302     5.8523806549     5.8746610835
          6
Energy: -0.03175324237821297 Kcal/mole
 He    -4.0717418164    -1.4190986984    -1.3715851927
 He     1.3025198278    -2.8837159870    -0.8243305877
 He    -4.6589971844    -0.9263329985     2.0460848271
 He    -5.0704670281     6.3681314650    -6.7134027910
 He    -5.3502527641    -5.5597072777    -5.2699243093
 He    -6.9898537145    -6.7854690405    -7.3597053917
          6
Energy: -0.01258034996481324 Kcal/mole
 He     3.4933118955    -5.8252712030    -7.1779370022
 He     6.6741512761     2.4986837460    -0.2940600999
 He    -6.1969008363     6.1241492554    -3.6494521321
 He    -3.3153219674     0.3889352879    -4.0188688952
 He    -6.7650761724    -2.9861109999     3.0106593969
 He     7.0398247493     4.7716038105     2.1837205827
          6
Energy: -0.019680948052406434 Kcal/mole
 He     6.1370591352    -6.0730414470     0.9191178615
 He    -5.9246521903    -7.4925969611    -5.8194105088
 He    -0.6430035224     0.5336867695    -1.4384109765
 He     3.0556688993     6.3217294737     7.1382775874
 He    -6.0464232283     4.5333096067     4.9034967146
 He    -3.4905969563     0.5890819082    -0.6143432207
          6
Energy: -0.008047238553081126 Kcal/mole
 He     3.5227646716    -7.4146994526    -5.9334503775
 He     0.9807708452     4.3377691529     1.9558796316
 He     2.2655857085    -0.6337193015     2.4272124160
 He    -1.9113570200    -0.4051727492    -7.2499300744
 He     4.4979345370     2.1051487502     6.5406921730
 He     6.0380042334     3.0514530393     2.6616752864
          6
Energy: -0.07000697823417223 Kcal/mole
 He    -7.3102456774    -3.3210403391    -7.1947183353
 He     1.0388198555     5.0448559142     3.1165511627
 He     0.8253775105     6.5851626425    -5.9557990966
 He     2.4351679965     6.9892113218     5.6564424527
 He     0.1765157851     4.6390436393     5.6372527297
 He     3.5999534910     5.8302102299     3.6353292452
          6
Energy: -0.1449154294254038 Kcal/mole
 He     0.6638225863     7.1418699818     3.6724543642
 He     0.4235278799     3.8332060241     5.2129852013
 He    -2.1958377942     3.9014813819     6.2452607360
 He    -0.3355828096     6.5276454474     6.0822887234
 He     3.3255336238     5.4374696070     5.5932978158
 He     2.8176723185     2.5608045154     4.3170193457
          6
Energy: -0.23042011043671431 Kcal/mole
 He     0.9995088488     4.6033160834     3.3782841504
 He     3.4447079472     4.5752010611     4.6214839447
 He     2.0043335547     2.1311506732     3.9618412268
 He    -0.9666002630     2.8003221883     4.5889641476
 He     1.1101009971     3.8287658399     6.3363489119
 He     3.3165080349     2.1456314284     6.4817858826
          6
Energy: -0.24585731845438172 Kcal/mole
 He     1.0389392416     4.7938984898     3.4398731428
 He     3.5478740449     4.4214921560     4.7504243895
 He     1.9690055917     2.1544753086     3.9802274946
 He    -0.7810166762     2.7921928100     4.3868978869
 He     1.1256377882     3.9067031766     6.1684442172
 He     3.3674133771     2.1447189436     6.4900288362
