          6
Energy: -0.2541109411561028 Kcal/mole
 He    -4.1703596486     3.3947286683     5.9898103109
 He    -2.0390271070     4.1313269742     4.2561514868
 He    -3.3157384439     1.5753851024     3.9857166542
 He    -4.5858939827     5.4017154684     4.0219120136
 He    -5.8612262921     2.8616219124     3.7654953596
 He    -3.7251465206     3.5864009598     2.0150349373
