          6
Energy: -0.02438530085523288 Kcal/mole
 He     1.0333952553    -5.7774974710     0.2273729191
 He    -0.9432677268    -3.9740798704     3.8320656231
 He    -1.8942439812     5.4499036463    -4.5974839602
 He    -2.5410876907     4.8548569989     4.0318687037
 He    -3.8456702550     3.1754987889    -5.5834617751
 He    -2.9710255909     3.6660587156    -0.2710392317
          6
Energy: -0.008200621767698006 Kcal/mole
 He     0.8099533287    -2.2095752204     3.3695065223
 He    -4.0077764426     1.0214176607    -3.0129163551
 He    -3.1071625202     2.1574216466    -7.2264099016
 He    -5.9787640303    -5.4943967919     2.7764430803
 He     1.4822771362    -3.6595845184    -4.2114194082
 He     4.4523149515    -2.0507654032     1.5517043868
          6
Energy: -0.02686380212062928 Kcal/mole
 He     4.1108260228    -1.4852156036     1.0377467692
 He     3.8920809213     5.5842884676    -5.0699869047
 He     6.6302298983    -0.6192974326    -6.9260045714
 He    -5.6841166372    -0.6098660442    -2.3800765163
 He     4.8963088088     0.0178943679    -3.3901003312
 He     5.4384640790     6.7679210664    -7.0292324975
          6
Energy: -0.01027380063500004 Kcal/mole
 He    -0.7500900752    -2.9225068943    -4.5059176578
 He     3.6507221601     1.7163939184     6.2159618944
 He    -5.0654621569     3.5494800044     4.3077983449
 He     1.7084015130     5.2835895193    -7.0159858218
 He     4.3333241594    -4.4981184478     6.0699585730
 He    -3.6938587070    -0.9564487321    -4.3783883059
          6
Energy: -0.0033511647860129117 Kcal/mole
 He     6.9345216588    -1.0115013415    -2.9675106699
 He     5.3780967525     4.2596597685    -4.1703927980
 He    -0.8875227879     1.6252636727    -5.7297519780
 He     3.0439314222    -3.1985618615    -6.5561650248
 He    -1.6918010545     6.2095065687     1.3689103743
 He     5.4386263836    -2.6428576227     1.7332671341
          6
Energy: -0.026408557463837575 Kcal/mole
 He     3.5408369863     4.1420443308     2.1506587927
 He     6.1416311455    -3.6197568833     3.7574531495
 He     3.9539121443    -2.8428269557     4.8796506092
 He     1.1820850147    -3.8261969569     2.6038964887
 He     3.5187980673     6.8982252946     0.3159164465
 He     3.5650769513    -6.7542303646    -5.8189527411
          6
Energy: -0.02068849399663491 Kcal/mole
 He    -4.3791266030    -2.3837217660    -2.9752745214
 He     1.5489729865     5.9556801892     4.3813833929
 He     6.3733226919     1.1366800430    -0.7531078848
 He     0.9807501841     3.2503629449    -1.6320666350
 He    -1.7141496616    -0.4844594918     5.9235075929
 He     6.3414859353     4.1613324952    -0.7728104579
          6
Energy: -0.020379283601570163 Kcal/mole
 He     0.7313156741     6.3848476168     3.4282684069
 He    -6.0766444087     1.4585125578    -2.3673098595
 He    -1.0783566361    -2.9609973377    -2.9026824818
 He     4.5959362004     5.6556789614    -3.8621007165
 He    -1.5138970829    -5.9829252078    -3.4614414797
 He    -3.2296965531    -0.2335896290     1.1929525600
          6
Energy: -0.14708821651219076 Kcal/mole
 He     1.1631933242     0.9294569685     0.0296106470
 He     1.9004718653     3.7929439436    -0.8215369439
 He    -0.9795616157     2.0951958894     1.2943135489
 He     1.9185235076     1.2286782101    -2.5584253814
 He     0.9492248512    -1.6704240627    -4.6795300658
 He     0.0615285819    -0.7412152140    -2.1269591170
          6
Energy: -0.24598850986917462 Kcal/mole
 He     1.3202160004     0.6452852077    -0.0832674023
 He     0.5643672126     2.7040027078    -1.9086277132
 He    -1.3868312468     1.5746966784    -0.1483914911
 He     2.3719785761     0.6440655048    -2.7450829746
 He     1.6209140633    -1.8243915501    -1.5170244114
 He    -0.3865119947     0.0336340960    -2.3370861877
