          6
Energy: 0.05126199553413815 Kcal/mole
 He    -3.6483883711    -2.0826479254     2.6424845858
 He    -2.2316595696     1.4654923419    -3.5242238583
 He    -2.0636330254    -2.3223212072    -5.2891347708
 He    -3.8980871119     0.7483239253    -1.9653020979
 He     4.7805741741     4.7508521024    -2.2439718892
 He     2.5801380030    -2.4430180933     7.2817717907
          6
Energy: -0.02360886218070603 Kcal/mole
 He    -3.8504733986     3.9176835831    -3.9581378130
 He     4.5953443077    -3.3655685532    -4.2875774759
 He     3.7600587733     2.2900777490     6.8076461227
 He     4.6528683088    -5.4257062423     6.6226448519
 He     1.2748783593    -5.8791954169     6.6116548420
 He     2.0105592663    -3.9813496599     3.5581769297
          6
Energy: -0.001929731253474881 Kcal/mole
 He    -0.7460018961    -4.4713063754    -5.9971353549
 He    -6.9554525719     7.3414454365     0.1445680493
 He    -0.4974658174    -5.6061803107     5.0172344492
 He    -2.6733572502     1.4361710267     4.4933664744
 He     4.8272501842     1.5557351117    -4.5672285002
 He    -0.0219181164     3.8651507980     1.0123981504
          6
Energy: -0.004053314557821092 Kcal/mole
 He     6.4153936427    -1.6536718096    -4.1012574004
 He    -2.8318789803     1.5912350829     2.4482246579
 He    -2.2033515101    -3.4383384885     7.2867793723
 He    -0.2189679194     5.4680505741    -0.3026252387
 He     4.3240271689     0.6097491961    -0.3060503298
 He     6.1710882867     6.0622717015    -0.8242270363
          6
Energy: -0.01994878374133533 Kcal/mole
 He    -1.2160798027    -4.5121948995     4.9727398514
 He    -3.5545113955    -5.9199574852     4.3381971335
 He    -6.5539539914    -0.4591375195    -5.5544180568
 He     0.1873353003     5.2047020571     4.2826307876
 He     2.0434720208     2.3532167382    -1.5850912809
 He     5.6143304399    -2.9025142630    -7.1587232989
          6
Energy: -0.04402480928776117 Kcal/mole
 He    -1.6601749405    -6.4663053145     5.7969218841
 He     3.9563537811     2.8846701654     6.7871525009
 He    -1.6110477379    -0.1964017119     6.7955404865
 He    -3.9250966876     4.6492066380    -5.4583429980
 He     1.5321413443     0.5144443942     6.9016088894
 He    -4.1605353981    -6.1921729296     6.7713084591
          6
Energy: -0.04617773833165607 Kcal/mole
 He    -6.1991577743     4.8133127896     2.2263629063
 He     4.1937370966     0.3200404751     3.5922956342
 He    -4.9531776998     1.4319308257     4.3655632595
 He    -5.8018876795     2.9737938564     6.7943234906
 He    -0.2589672311     5.1027811877     1.2300669581
 He    -5.2937785997    -0.4522007048     7.2921777124
          6
Energy: -0.15641749758391268 Kcal/mole
 He    -1.1545558577     5.2933543380     4.2685642043
 He    -2.7305796876     0.4092304449     1.7400908186
 He    -2.1291853848     2.9803589634     2.8845372094
 He    -3.5709474162     5.6750107891     2.8030317464
 He    -3.5351425133     7.2527888013     5.5199617133
 He    -3.2416700681     3.4757123100     0.4681575073
          6
Energy: -0.23879141642770213 Kcal/mole
 He    -4.1297241070     3.4563712645     5.9152220610
 He    -1.8652799498     4.0324585549     4.3801488104
 He    -3.0462330085     1.3915456047     3.7549670103
 He    -4.6453245146     5.4425705159     4.0094903946
 He    -5.6661503115     2.5446648390     3.8321547897
 He    -3.6793302452     3.5865738732     2.0500993831
          6
Energy: -0.2541109411561028 Kcal/mole
 He    -4.1703596486     3.3947286683     5.9898103109
 He    -2.0390271070     4.1313269742     4.2561514868
 He    -3.3157384439     1.5753851024     3.9857166542
 He    -4.5858939827     5.4017154684     4.0219120136
 He    -5.8612262921     2.8616219124     3.7654953596
 He    -3.7251465206     3.5864009598     2.0150349373
