          5
Energy: -0.0625816697771976 Kcal/mole
 Ar    -7.1527339835     1.4698380306     7.3386515850
 Ar    -3.8353351847     8.8271407950    -4.0444312595
 Ar     2.4608690743     3.9561864871     6.1147240484
 Ar     5.0741918942    -0.3520751835    -5.9776920058
 Ar    -2.9316569350     1.7088805588     3.4407993504
          5
Energy: -0.26752878909558614 Kcal/mole
 Ar    -6.7510443757     8.4063636971    -8.6477618998
 Ar    -3.2780602126     6.6198761616    -7.5198523394
 Ar     2.2895836762    -8.7837423249    -1.3563720138
 Ar     3.5319809495     4.4387058575     4.8849769132
 Ar     3.1117590988    -8.7426895837     3.9588303318
          5
Energy: -0.08808206509701316 Kcal/mole
 Ar    -5.1684035271     7.4622894834     7.7720807412
 Ar     8.4660457830     2.2965845847     2.9776670463
 Ar     7.1675688268    -1.8214528190     8.9141236504
 Ar     1.9237110551     5.7383904385     0.5331407730
 Ar     7.7854850166     6.0711227226    -1.1475275357
          5
Energy: -0.1809615643267813 Kcal/mole
 Ar    -3.7137119019     0.9615662568    -5.9778081360
 Ar    -3.1308473805    -0.2699618369    -0.3481287570
 Ar     3.3358487007     0.2395638123    -7.4705780486
 Ar    -5.1632719236    -4.0113749954     7.3816335154
 Ar     6.3254942276     1.1822680631    -4.0914628728
          5
Energy: -0.45052126399296466 Kcal/mole
 Ar     2.8715813420     2.2965962596    -2.0505509764
 Ar     4.6498867998    -0.1908911754     3.3243242125
 Ar    -0.1514376250    -0.2279027183    -0.2285794152
 Ar    -7.8930157775    -5.9061646863    -1.1925160552
 Ar     7.6227667444     1.4765200849     4.7056669799
          5
Energy: -0.14484599044622729 Kcal/mole
 Ar     8.5969029781    -5.3626078020    -0.4573936567
 Ar    -2.1799260432    -3.4804109837     1.8704074293
 Ar    -2.9123563931     0.3371791744     5.6222570492
 Ar    -6.6900085575    -5.5942537520     0.9587402601
 Ar    -3.8704844266     6.0766874160    -0.0023027598
          5
Energy: -0.710113980714287 Kcal/mole
 Ar     5.4112316268     7.4336509447     4.9472197820
 Ar     3.0267151260     3.6377831863     7.3903509424
 Ar     7.6073902031    -1.4849560577     0.3014012105
 Ar     3.9224917278     0.0154600500     0.1490855038
 Ar     1.4806437509     6.8240332253     6.4199692772
          5
Energy: -1.8070277832436785 Kcal/mole
 Ar    -0.0180975208    -2.9152695213     0.7112721426
 Ar    -1.3457988622    -3.4086930022    -2.9191772818
 Ar     2.2655662005    -5.4824173066    -0.9788594299
 Ar    -1.7492266099    -6.1459342687     0.0770422089
 Ar    -3.7402052928    -3.0872122004     1.1650509468
          5
Energy: -1.9850277215365075 Kcal/mole
 Ar    -4.5301073428     0.0510373649    -0.3116253546
 Ar    -2.7094026307    -1.1494483263     2.9020373457
 Ar    -1.8671743087    -2.4540618436    -0.5660119907
 Ar    -2.1361213832     0.3762942952    -3.1372754242
 Ar    -0.3126371059     0.9949829150     0.3409601425
          5
Energy: -2.1287935433799254 Kcal/mole
 Ar    -4.4458924479     0.3840900621     0.0342843305
 Ar    -2.4706947938    -1.0855025025     2.9463318451
 Ar    -1.9209392201    -2.4315533830    -0.5766707640
 Ar    -2.2192632524     0.4343964382    -3.0454176199
 Ar    -0.6761897278     1.0630320991     0.3659522188
