          5
Energy: -0.04226466893300107 Kcal/mole
 Ar     0.2143290485     2.9673684775    -0.0707595316
 Ar    -3.3476754644    -1.7101868348    -5.7755105392
 Ar    -1.1469288833    -4.8442433163     3.3661100263
 Ar     4.3138260923    -2.5715758969    -4.4978947296
 Ar    -4.9615463137     1.3300245900     4.7176903583
