          5
Energy: -2.1288492211247325 Kcal/mole
 Ar    -2.8259433818     4.9044098874    -4.3109179203
 Ar    -0.2016702626     7.1492571628    -2.6830318712
 Ar    -3.8239130618     7.2807379531    -1.4898254167
 Ar    -6.1596071681     6.7919949777    -4.4606136782
 Ar    -2.8909432576     8.6822249222    -4.9256061606
