          5
Energy: -0.0022803228912995225 Kcal/mole
 Ar     7.9784739634    -3.1142053881     5.2535727291
 Ar    -8.1947495311    -3.6587310478    -6.5060797219
 Ar    -4.8509216749    -0.8277784181     5.6867222345
 Ar     4.6673139064     8.2839919708    -0.6870470367
 Ar    -7.3588176161     8.4966005515    -1.8277409036
          5
Energy: -0.42312252046471216 Kcal/mole
 Ar    -7.0108246022    -0.2045318477     0.6023567949
 Ar     5.7713453743     7.3608585601     4.5962828926
 Ar     2.5174455804     6.6431733222     3.1432785374
 Ar    -4.8861411541     8.7543302417     3.2952152630
 Ar    -3.4239768813     0.5641814736     2.5419453944
          5
Energy: -0.2412822413746504 Kcal/mole
 Ar    -1.3739688389     6.5065355668     7.7865277545
 Ar     5.0973145669     3.1871750392    -2.3938819855
 Ar    -4.0182476874     0.1020537942    -7.6612999089
 Ar     1.3174380872     3.2987507855    -2.5200754516
 Ar    -5.3056591099    -4.7873237168     7.1499223205
          5
Energy: -0.012833657768223598 Kcal/mole
 Ar    -2.6892948127     5.2510374690     7.1636528525
 Ar     6.3560218873     7.1139931558     2.7630560547
 Ar     3.9549653158    -1.4827205756    -1.7691783744
 Ar     6.6344695326     8.3143367910    -6.3730184265
 Ar    -3.2617799408    -4.4798453956    -2.1627488196
          5
Energy: -0.23545425475383314 Kcal/mole
 Ar    -5.1808212000     8.6451030679     0.4375497881
 Ar     7.5058444470     5.0643620304    -5.5595875802
 Ar     3.2717256879    -3.2756523512     1.6101806786
 Ar    -7.7381275635    -8.2262595288    -8.9307537669
 Ar     4.9873483165     5.5785458053    -2.8060070815
          5
Energy: -0.248216184672151 Kcal/mole
 Ar     3.4302785028    -1.7377459443     4.9425199144
 Ar     1.5748736898    -0.1071290637     8.0878742808
 Ar    -1.0083303126    -5.4646916281    -0.9239728835
 Ar    -8.9119251030    -6.5045997926     7.7002525263
 Ar    -8.2069178594    -7.7483811818     1.0818051621
          5
Energy: -1.239299256941891 Kcal/mole
 Ar    -3.8617968637     0.6857110920     0.2571652158
 Ar    -4.0422106661     0.7462096000     4.2718334142
 Ar    -3.7978242480    -2.2274201130     2.2604878286
 Ar    -5.4966407182    -3.0730592988    -1.2414741214
 Ar    -6.6692479097     3.8489631282     3.3411183969
          5
Energy: -1.9711522264382562 Kcal/mole
 Ar    -5.5357875356     0.0746072735     2.8600739658
 Ar    -2.7341082647     0.5108674163     0.4252153564
 Ar    -3.9205712102    -3.2809717017     1.2287608586
 Ar    -5.0592840409    -2.7044177266     5.2336151187
 Ar    -1.7295086006    -1.4469473179     3.6802716992
          5
Energy: -1.9437076311987846 Kcal/mole
 Ar    -1.3742252253    -0.7150202593     2.4105865180
 Ar     1.8067265235    -2.6426046564     2.0004374536
 Ar     0.1523009307    -2.5832811628     5.3721545635
 Ar    -2.2931314041    -0.0507445961     6.4056416801
 Ar     1.2275252140     0.8726478764     4.7179693764
          5
Energy: -2.128961827258758 Kcal/mole
 Ar    -1.7553577820    -0.7554803189     2.7113157078
 Ar     1.7926211035    -1.8615794834     1.8147488052
 Ar     0.3221664691    -2.7190738795     5.2264029965
 Ar    -1.8756330472     0.1447724973     6.4260197970
 Ar     1.2500225795     0.8940080519     4.3926069382
