          5
Energy: -0.24539684547419402 Kcal/mole
 Ar     2.9914392948    -4.0929081661    -4.7551684170
 Ar    -6.1228218475     7.6745184339     3.9378102190
 Ar     6.3314324334     1.6205361171    -0.7276802011
 Ar    -7.4356849617    -2.0372181546    -6.9249138950
 Ar    -4.7498890192    -4.2157827160    -8.5815102721
          5
Energy: -0.04239238803945759 Kcal/mole
 Ar    -7.4023360094    -2.7100745989    -2.4551178725
 Ar    -5.6798514072    -8.4549047536     6.1463608928
 Ar     8.9427744294    -4.3423249034    -7.6180567984
 Ar    -7.0130879598     0.8331839649    -6.8961783826
 Ar     8.1395890648    -0.4766573164     4.2492969316
          5
Energy: -0.24825978478969574 Kcal/mole
 Ar     5.0543072466    -3.2036589109     7.5180312229
 Ar    -5.6128632338     4.2521952953    -2.2993512070
 Ar     4.3849089449     2.1787126421    -0.0228958291
 Ar     2.8544516459    -5.7262661783     4.4635716814
 Ar     0.4494872336     3.0652298960    -3.0464834035
          5
Energy: -0.9188599046088437 Kcal/mole
 Ar    -3.3020575836    -5.4285606195     0.8968621235
 Ar    -1.4610947200    -4.7724254439    -2.7761145092
 Ar    -1.2625205986    -1.8545052408    -0.3958899162
 Ar    -4.2773733803     1.9846793437    -6.5500773528
 Ar    -0.0596129077    -6.1810268575     2.8945673901
          5
Energy: -0.19027901668437355 Kcal/mole
 Ar    -7.7692890912    -1.3727697612     3.5079527420
 Ar    -8.3042365898     0.3790298765    -4.9851635545
 Ar     0.6950877890     2.4037304208     2.6966103719
 Ar     1.7522240921    -6.4020091341    -7.5272758282
 Ar    -8.5929350146     1.6811972684    -0.1618228145
          5
Energy: -1.3592985051933453 Kcal/mole
 Ar    -0.1023836789     3.4966773695    -5.7691146206
 Ar     2.0547024615     0.7153381572    -3.7030197693
 Ar     3.3247898202     5.7419767407    -4.7024081496
 Ar    -0.2683292988     4.5527448911    -1.7835158066
 Ar     2.6238256567     2.4969286510    -0.1031015843
          5
Energy: -1.6384773111515514 Kcal/mole
 Ar    -0.6496679688     5.0041382472    -0.6086300743
 Ar     0.3151594716     7.5774841311    -2.9579530440
 Ar     2.6403439579     3.9671237020    -3.5096997326
 Ar     2.1029880163     6.8500384424    -6.3733317324
 Ar    -0.9289014314     4.3985943770    -4.0705522380
          5
Energy: -1.609784654104898 Kcal/mole
 Ar     0.0880569809     5.3050605137    -2.2981342866
 Ar     1.4551296645     7.1908983343     1.1938218821
 Ar    -1.3037679504     8.7174408693    -0.9189218552
 Ar    -4.4812491407     6.1247169001    -2.3451839488
 Ar     2.0372131632     8.7708645552    -2.2447182934
          5
Energy: -1.991055214794011 Kcal/mole
 Ar    -2.7994739820     4.9184574542    -4.3212643787
 Ar    -0.1940887348     6.9340624486    -2.3164863597
 Ar    -3.9176434243     6.9920277724    -1.3151234871
 Ar    -6.4927768389     6.8825963579    -4.2889747259
 Ar    -2.6043173067     8.6156767714    -4.7595737404
          5
Energy: -2.1288492211247325 Kcal/mole
 Ar    -2.8259433818     4.9044098874    -4.3109179203
 Ar    -0.2016702626     7.1492571628    -2.6830318712
 Ar    -3.8239130618     7.2807379531    -1.4898254167
 Ar    -6.1596071681     6.7919949777    -4.4606136782
 Ar    -2.8909432576     8.6822249222    -4.9256061606
