          5
Energy: -2.1287935433799254 Kcal/mole
 Ar    -4.4458924479     0.3840900621     0.0342843305
 Ar    -2.4706947938    -1.0855025025     2.9463318451
 Ar    -1.9209392201    -2.4315533830    -0.5766707640
 Ar    -2.2192632524     0.4343964382    -3.0454176199
 Ar    -0.6761897278     1.0630320991     0.3659522188
