          5
Energy: -2.128716840724431 Kcal/mole
 Ar     3.3861245623     1.7150649290    -2.6761237255
 Ar     0.5159414477    -0.4230943671    -1.3687207694
 Ar     3.6148935802    -2.0900046134    -2.8143030923
 Ar     3.8024061256    -0.3077828348     0.5426865141
 Ar     1.2224447056    -0.2270712898    -5.1152544275
