          6
Energy: -17.580339504376468 Kcal/mole
 H     -2.2125577356    -2.8835583556    -4.7446485997
 F     -1.4548382445    -2.8353767535    -5.2588749175
 H     -4.0418966548    -2.6702151883    -5.5856542319
 F     -3.9758401553    -2.8160677668    -4.6827408561
 H     -2.3809146201    -2.5610970516    -6.7354583693
 F     -3.2055346044    -2.4634324445    -7.1244988634
