          6
Energy: -17.57855175506063 Kcal/mole
 H     -4.1910542426     1.3605523126    -7.1443037039
 F     -4.3300898814     0.5090819363    -6.8335686246
 H     -2.5133824012     2.3716949728    -6.6590983656
 F     -3.1407082415     2.7703725563    -7.1961341879
 H     -2.8040935220     0.4953718912    -5.9648221864
 F     -2.0377509891     0.9445827135    -5.7371870410
