          6
Energy: -17.547380692253626 Kcal/mole
 H     -1.4997463811    -3.9226739250    -5.0001835777
 F     -1.1427043395    -3.7095583518    -5.8174911899
 H     -3.4842296439    -4.0656438598    -4.6698672573
 F     -2.8891443203    -4.2256595547    -3.9907815226
 H     -2.7473164146    -3.5930757714    -6.5331019901
 F     -3.6512315705    -3.6728987911    -6.4009858424
          6
Energy: -17.56069134229051 Kcal/mole
 H     -1.5462103938    -3.6890565924    -5.0414086163
 F     -1.2105628411    -3.3512050862    -5.8250450627
 H     -3.4932421002    -4.2093109414    -4.8472544877
 F     -2.9242339418    -4.3001049092    -4.1338996174
 H     -2.7735438659    -3.4610889313    -6.5880006332
 F     -3.6636428209    -3.6755300797    -6.5367381304
          6
Energy: -17.56879357058017 Kcal/mole
 H     -1.4764807225    -3.2813240904    -5.0337212765
 F     -1.2089645525    -3.0262809103    -5.8729334517
 H     -3.3460357775    -4.0035461832    -4.6941873723
 F     -2.7472477368    -3.9277537253    -4.0038270420
 H     -2.7842203142    -3.4449641597    -6.5666017120
 F     -3.6284596208    -3.7796252768    -6.4395154028
          6
Energy: -17.56163894366557 Kcal/mole
 H     -1.4884431113    -3.3278775658    -5.1523799892
 F     -1.2068537770    -3.0296881035    -5.9725503931
 H     -3.3934606161    -3.9128358011    -4.8959686778
 F     -2.8143945166    -3.9666412460    -4.1869719031
 H     -2.8047221600    -3.2031672858    -6.6898775800
 F     -3.6783770198    -3.4501735035    -6.5610206270
          6
Energy: -17.567620447984552 Kcal/mole
 H     -1.4707528524    -3.7961916101    -5.2794280284
 F     -1.1601168151    -3.3210497747    -5.9995908493
 H     -3.4355156499    -3.8215862408    -4.8512869319
 F     -2.8543156333    -4.2717372627    -4.3031449811
 H     -2.7632152103    -2.8027690867    -6.4551330995
 F     -3.6641482560    -2.8119272583    -6.2844732769
          6
Energy: -17.549775287886803 Kcal/mole
 H     -1.4191807133    -3.7088126404    -5.1799837892
 F     -1.1594617484    -3.2956097311    -5.9563203239
 H     -3.3523495666    -3.7876473454    -4.6489209176
 F     -2.7249526638    -4.1700589515    -4.1002648415
 H     -2.8289318656    -2.8997879311    -6.3616351571
 F     -3.7092860729    -2.9028505288    -6.1050107424
          6
Energy: -17.55799340635349 Kcal/mole
 H     -1.3501936899    -3.3864320245    -4.9890689202
 F     -1.1040367755    -2.9416858786    -5.7522835946
 H     -3.3070339956    -3.8788614128    -4.6936677171
 F     -2.6757489240    -4.1478771895    -4.0853925570
 H     -2.7628273165    -2.8251377768    -6.3384128741
 F     -3.6502168338    -3.0149989089    -6.2065735967
          6
Energy: -17.543991107358636 Kcal/mole
 H     -1.4475111735    -3.2864708808    -4.8948418599
 F     -1.1193671685    -2.8732794969    -5.6448307880
 H     -3.3655290290    -3.9194344389    -4.8088805915
 F     -2.8078855576    -4.0552129081    -4.0936974219
 H     -2.7100295697    -2.9840901185    -6.5197475290
 F     -3.5755995769    -3.2778171629    -6.4462493242
          6
Energy: -17.570512037219487 Kcal/mole
 H     -1.6384409153    -3.2016452065    -4.7895714084
 F     -1.2196418014    -2.8868612359    -5.5421718031
 H     -3.5328951738    -3.9543513538    -4.9184326243
 F     -3.1081470186    -3.9304222981    -4.1060870051
 H     -2.5970112188    -3.2369253808    -6.5597503348
 F     -3.4472725892    -3.5717224327    -6.6362718094
          6
Energy: -17.551566477027336 Kcal/mole
 H     -1.8659731524    -2.7116978509    -4.8067581177
 F     -1.5354232424    -2.3205853351    -5.5674530349
 H     -3.4901095118    -3.9595501952    -4.9040337646
 F     -3.1199289979    -3.7646805802    -4.0880183112
 H     -2.7419808002    -3.1389938951    -6.6053948292
 F     -3.4511531486    -3.7183149205    -6.6538791554
          6
Energy: -17.559557323933916 Kcal/mole
 H     -1.8930306956    -2.6953964646    -4.7707884603
 F     -1.5565199752    -2.3100177064    -5.5317961789
 H     -3.4184836725    -3.9746508044    -4.8388425008
 F     -3.0372548555    -3.7646729915    -4.0317099794
 H     -2.7182460623    -3.1404228214    -6.5554426480
 F     -3.4238927169    -3.7245751242    -6.5968900367
          6
Energy: -17.549432038841644 Kcal/mole
 H     -1.7177829350    -2.7080041560    -4.6962341867
 F     -1.4838928883    -2.1954419002    -5.4197425695
 H     -3.2209840017    -4.0439205089    -4.8077076412
 F     -2.7779443446    -3.9194323382    -4.0145446329
 H     -2.7669824759    -2.9261106728    -6.4493620336
 F     -3.4426323311    -3.5444152305    -6.4950320140
          6
Energy: -17.555918364427782 Kcal/mole
 H     -1.9587776814    -2.5074004310    -4.7199619906
 F     -1.7808286455    -2.0458282512    -5.4920852084
 H     -3.1347430077    -4.1734127188    -4.8194904383
 F     -2.7851650007    -3.9075999535    -4.0144887049
 H     -2.7023897137    -3.1341193985    -6.5036602937
 F     -3.2322607812    -3.8791479712    -6.5747804581
          6
Energy: -17.564334795108664 Kcal/mole
 H     -2.0189344545    -2.5989468815    -4.7494406328
 F     -1.8270052832    -2.1233656822    -5.5096213455
 H     -3.0183022132    -4.3405072495    -4.8491258056
 F     -2.7538321024    -4.0260176123    -4.0293448418
 H     -2.6027392001    -3.2991507814    -6.5327204266
 F     -3.0562028996    -4.0940691738    -6.5907240698
          6
Energy: -17.54566378003301 Kcal/mole
 H     -2.0669552731    -2.5418551594    -4.6893005202
 F     -1.9475721171    -2.0188490573    -5.4330083118
 H     -2.9519857469    -4.3293772024    -4.8163330551
 F     -2.6262876886    -4.0433119079    -4.0082634899
 H     -2.7717407240    -3.1701530973    -6.4768650667
 F     -3.2029717968    -3.9760178541    -6.5510995300
          6
Energy: -17.56102009805693 Kcal/mole
 H     -1.9571243160    -2.5103599477    -4.7367324148
 F     -1.8617839229    -1.9668203682    -5.4691011299
 H     -3.0597867543    -4.2041863865    -4.8542334538
 F     -2.6571804394    -3.9845754189    -4.0601502226
 H     -2.8788052365    -2.9768648700    -6.4529895688
 F     -3.3785019748    -3.7401656134    -6.5455322341
          6
Energy: -17.56464911788828 Kcal/mole
 H     -2.0302441619    -2.4564227662    -4.6317905947
 F     -1.8630916903    -1.9115318038    -5.3501518480
 H     -3.0639591465    -4.1863560367    -4.8594002501
 F     -2.7802591870    -3.9372359725    -4.0237313404
 H     -2.7092125100    -2.9907717733    -6.4451742846
 F     -3.1577922478    -3.7818036911    -6.5632154801
          6
Energy: -17.568738699784035 Kcal/mole
 H     -1.8734213301    -2.5205753705    -4.6288416796
 F     -1.6249135206    -2.0427606818    -5.3710182030
 H     -3.2199151583    -4.0378770216    -4.8246410390
 F     -2.8788950255    -3.8436510777    -3.9958644999
 H     -2.6735618674    -2.9585521672    -6.4283191613
 F     -3.2780866469    -3.6405704678    -6.5297579539
          6
Energy: -17.561864997126236 Kcal/mole
 H     -2.0718899340    -2.4107057236    -4.5999820432
 F     -1.8061546446    -1.9131385754    -5.3229624641
 H     -3.1293886656    -4.1244743837    -4.8453568200
 F     -2.9087626510    -3.8365059234    -4.0031648422
 H     -2.5635440233    -3.0377385316    -6.4325314856
 F     -3.0311376376    -3.8138699257    -6.5734756980
          6
Energy: -17.56997446440772 Kcal/mole
 H     -2.0904300222    -2.3544564845    -4.5747625606
 F     -1.8357969681    -1.8738300573    -5.3130370659
 H     -3.1685115070    -4.0607216800    -4.8157650750
 F     -2.9343082576    -3.7986144723    -3.9688071955
 H     -2.6234204447    -2.9775920873    -6.4351263422
 F     -3.1108367167    -3.7469955948    -6.5415811239
          6
Energy: -17.552260802441708 Kcal/mole
 H     -2.0540195916    -2.3843679705    -4.6083865480
 F     -1.7958680646    -1.8981517629    -5.3417627057
 H     -3.1829553307    -4.0553711063    -4.8141864645
 F     -2.9593316201    -3.7631130071    -3.9742658495
 H     -2.6273603061    -2.9697112571    -6.4313859191
 F     -3.1319785742    -3.7248532706    -6.5579163221
          6
Energy: -17.56947717331701 Kcal/mole
 H     -2.3361539632    -2.1815917462    -4.6666331402
 F     -2.1103021593    -1.7101233582    -5.4200238235
 H     -3.2489695322    -3.9782771023    -4.8171139817
 F     -3.0703133429    -3.6282402897    -3.9885940991
 H     -2.7534691582    -2.9767673835    -6.5024012935
 F     -3.1558705726    -3.7978161772    -6.5719784457
          6
Energy: -17.56020179940532 Kcal/mole
 H     -2.4615956778    -2.1717963200    -4.6055405078
 F     -2.0369003802    -1.7764058712    -5.3156033903
 H     -3.3648608602    -3.9603863231    -4.8288342875
 F     -3.3902469278    -3.5473605309    -4.0105102426
 H     -2.4663685517    -3.0902798697    -6.4039786451
 F     -2.9003698325    -3.8896128411    -6.5205920627
          6
Energy: -17.566696667090298 Kcal/mole
 H     -2.4658808492    -2.2364638412    -4.6912850162
 F     -1.9493765995    -1.9077723775    -5.3739813482
 H     -3.3760676454    -4.0260807052    -4.8686791180
 F     -3.4857930596    -3.5434231051    -4.0967393700
 H     -2.2491883483    -3.3236334664    -6.3999086691
 F     -2.6879332657    -4.1246831242    -6.4818314567
          6
Energy: -17.56830906449892 Kcal/mole
 H     -2.5578591890    -2.1502735178    -4.7223512582
 F     -1.9033681916    -1.9392505278    -5.3289811552
 H     -3.5775513546    -3.8844760284    -4.8941908477
 F     -3.7770508045    -3.3195384588    -4.1999758148
 H     -2.1422418564    -3.4432954632    -6.2211175349
 F     -2.6082185468    -4.2268117834    -6.3203994567
          6
Energy: -17.542472437797244 Kcal/mole
 H     -2.6603396091    -2.0339306116    -4.8194589201
 F     -2.0902545488    -1.7816766641    -5.4919616858
 H     -3.6334245804    -3.8126506602    -4.8719612184
 F     -3.7271164169    -3.2594977721    -4.1466111497
 H     -2.4526360680    -3.2708529282    -6.4047160023
 F     -2.9040772930    -4.0676829079    -6.4511035427
          6
Energy: -17.56763754282497 Kcal/mole
 H     -2.4937455439    -2.1462838635    -4.6788832978
 F     -1.9187072536    -1.9042562119    -5.3509268830
 H     -3.7553715854    -3.7132381398    -4.8664592319
 F     -3.7497352203    -3.2241460761    -4.0908006829
 H     -2.5177438679    -3.2005550830    -6.4146188520
 F     -3.0935422967    -3.9075005126    -6.5124622425
          6
Energy: -17.56443214049 Kcal/mole
 H     -2.3281676980    -2.2214089892    -4.6241869953
 F     -1.7930149208    -1.9423675040    -5.3145755486
 H     -3.6374740528    -3.7473290279    -4.8949352359
 F     -3.5858071275    -3.3343076884    -4.0778471734
 H     -2.4178656286    -3.1852583380    -6.4235590094
 F     -2.9993371575    -3.8854153998    -6.5356301918
          6
Energy: -17.560360354667182 Kcal/mole
 H     -2.4340727838    -2.1974657652    -4.6762467909
 F     -1.7872543106    -2.0516626468    -5.3096947472
 H     -3.8583318775    -3.6358463397    -4.9274218350
 F     -3.8335540909    -3.1238481586    -4.1670713081
 H     -2.4308627221    -3.3342352578    -6.3531859568
 F     -3.0648453159    -3.9832283615    -6.4864639447
          6
Energy: -17.573303909473907 Kcal/mole
 H     -2.4534301863    -2.1557177675    -4.7015572071
 F     -1.8075623646    -1.9989474023    -5.3333537009
 H     -3.8781227521    -3.5701244734    -4.9713469914
 F     -3.8581873209    -3.0834035011    -4.1944336927
 H     -2.4830424013    -3.2259946323    -6.4194044947
 F     -3.1304053928    -3.8615749781    -6.5530000834
          6
Energy: -17.56745322284678 Kcal/mole
 H     -2.4502549163    -2.1794807916    -4.7346753323
 F     -1.7854927058    -2.0661160023    -5.3560678235
 H     -3.9382463112    -3.5215120789    -5.0548357449
 F     -3.9230762280    -3.0346818145    -4.2778832610
 H     -2.4863871393    -3.2362526406    -6.4483481655
 F     -3.1612278990    -3.8313927930    -6.6252298999
          6
Energy: -17.56039445993082 Kcal/mole
 H     -2.7028325946    -1.9380452732    -4.9266686409
 F     -1.9575070646    -1.8305192772    -5.4499439169
 H     -3.9945317781    -3.4183082694    -5.2810463396
 F     -4.1550687905    -2.8398227045    -4.5878859550
 H     -2.3830043776    -3.2358258277    -6.4419855482
 F     -2.9819789462    -3.9115214466    -6.6018414111
          6
Energy: -17.57156104794251 Kcal/mole
 H     -2.6862502698    -1.9324576445    -4.8927850752
 F     -1.9547256282    -1.8546278397    -5.4402366440
 H     -4.0297996441    -3.4027065015    -5.2221921588
 F     -4.1648500683    -2.8268193789    -4.5214750939
 H     -2.4177344635    -3.2508789232    -6.3995963013
 F     -3.0212738730    -3.9231993879    -6.5564859884
          6
Energy: -17.56986184149281 Kcal/mole
 H     -2.5032336452    -2.2200223539    -4.7096387126
 F     -1.7052175517    -2.2425207536    -5.1608073469
 H     -4.0645054992    -3.3312892387    -5.3069906471
 F     -4.1600672050    -2.7963594535    -4.5683384385
 H     -2.3144262761    -3.3977189324    -6.3215235937
 F     -3.0171683389    -3.9120864369    -6.6086971710
          6
Energy: -17.563515212206937 Kcal/mole
 H     -2.5293981556    -2.1974839154    -4.7304342362
 F     -1.7452827712    -2.2245177734    -5.2051143753
 H     -4.1500593297    -3.2086126489    -5.4138563593
 F     -4.2315645894    -2.7212249066    -4.6413933626
 H     -2.4382210799    -3.2837281479    -6.4604243804
 F     -3.1695775473    -3.7481455262    -6.7609625916
          6
Energy: -17.560375532097794 Kcal/mole
 H     -2.5897898735    -2.1966670899    -4.7461550443
 F     -1.8370493503    -2.1005578817    -5.2609693067
 H     -4.1989097797    -3.1741476869    -5.4342402263
 F     -4.2414817013    -2.8024205194    -4.5970451807
 H     -2.5657657544    -2.9778876422    -6.6098332376
 F     -3.2994890471    -3.4354871543    -6.9150246796
          6
Energy: -17.571294283277723 Kcal/mole
 H     -2.5629437923    -2.3105182877    -4.6630598974
 F     -1.7849201067    -2.3376933586    -5.1476521592
 H     -4.2667040428    -3.1320924053    -5.4518573527
 F     -4.2996631503    -2.7404993182    -4.6233300138
 H     -2.5407231648    -3.1608908446    -6.5066860266
 F     -3.2963608049    -3.5288132380    -6.8734746159
          6
Energy: -17.564010711453932 Kcal/mole
 H     -2.4984795071    -2.4099495165    -4.6644596900
 F     -1.7180022756    -2.4433772701    -5.1446959614
 H     -4.2235754494    -3.1165004618    -5.4391404200
 F     -4.2107221590    -2.7405091076    -4.6028663654
 H     -2.5142422759    -3.2162988789    -6.5362879668
 F     -3.2970477532    -3.5322827921    -6.8944202765
          6
Energy: -17.5716670705645 Kcal/mole
 H     -2.4154967287    -2.4476071159    -4.6466613311
 F     -1.6647455720    -2.4188717503    -5.1724331252
 H     -4.2076908376    -2.9641003843    -5.4496447083
 F     -4.1535653199    -2.7534768002    -4.5588040188
 H     -2.5375115168    -2.9164910365    -6.6066962202
 F     -3.3381322907    -3.1649151231    -6.9784230684
          6
Energy: -17.570327091578747 Kcal/mole
 H     -2.3774583244    -2.4321753498    -4.6562687459
 F     -1.6386104258    -2.4401919507    -5.1993419609
 H     -4.2041228371    -2.8830257121    -5.4376255222
 F     -4.1257858689    -2.6795168115    -4.5469311600
 H     -2.5706891601    -2.8765760460    -6.6339151191
 F     -3.3849477661    -3.0914839448    -6.9968014892
          6
Energy: -17.568652776984152 Kcal/mole
 H     -2.3770490742    -2.4750386462    -4.6838565043
 F     -1.6359821714    -2.4468650490    -5.2232219593
 H     -4.1992863193    -2.8800599952    -5.4645743206
 F     -4.1242367511    -2.7390417914    -4.5615956783
 H     -2.5980532101    -2.7726398176    -6.6896181577
 F     -3.4296183379    -2.9474611937    -7.0343295220
          6
Energy: -17.571793164023518 Kcal/mole
 H     -2.3341095379    -2.6248846547    -4.6710011227
 F     -1.6220840921    -2.5202217152    -5.2392919229
 H     -4.1874693097    -2.8548964288    -5.4135757932
 F     -4.0642085255    -2.8565745792    -4.5048993035
 H     -2.6360692219    -2.6281593489    -6.6651830192
 F     -3.4775113764    -2.7315345108    -7.0147222537
          6
Energy: -17.562990977143045 Kcal/mole
 H     -2.3137167384    -2.6265423167    -4.6663599174
 F     -1.5782048012    -2.5374038653    -5.2066982621
 H     -4.1711363263    -2.8630794320    -5.4412070620
 F     -4.0740495928    -2.8329186216    -4.5298599867
 H     -2.5677861431    -2.7003364910    -6.6828853012
 F     -3.4075968264    -2.8181892803    -7.0317659918
          6
Energy: -17.57410796750429 Kcal/mole
 H     -2.3011028726    -2.6829553222    -4.6492531050
 F     -1.5707228814    -2.5844681821    -5.1949034983
 H     -4.1589869664    -2.9001748564    -5.4234419814
 F     -4.0383700692    -2.9093432043    -4.5144554548
 H     -2.5617265477    -2.6444308097    -6.6530595896
 F     -3.4009123303    -2.7278602952    -7.0131925419
          6
Energy: -17.570496570137095 Kcal/mole
 H     -2.2937197324    -2.7202708127    -4.6349229100
 F     -1.5531199955    -2.5932134111    -5.1605248948
 H     -4.1406502191    -2.7932893044    -5.4557269642
 F     -4.0528619448    -2.8787849102    -4.5469515682
 H     -2.5299389908    -2.5652561145    -6.6433218011
 F     -3.3670532168    -2.5998048357    -7.0160618695
          6
Energy: -17.56981149193831 Kcal/mole
 H     -2.2881524291    -2.8258521888    -4.6577649827
 F     -1.5498239870    -2.6743548271    -5.1800758681
 H     -4.1419348287    -2.7942871037    -5.4343819248
 F     -4.0254188056    -2.9668345549    -4.5413307541
 H     -2.5364010529    -2.4420409167    -6.6171727719
 F     -3.3804524000    -2.4240802422    -6.9751444713
          6
Energy: -17.571982937612063 Kcal/mole
 H     -2.2767920750    -2.8216110193    -4.6640498351
 F     -1.5497635319    -2.6845636181    -5.2058399304
 H     -4.1643425410    -2.7108365961    -5.4266174583
 F     -4.0457392782    -2.8963690911    -4.5364489578
 H     -2.5600188967    -2.4205911090    -6.6118155572
 F     -3.3965377593    -2.3754038721    -6.9847543004
          6
Energy: -17.57073529862072 Kcal/mole
 H     -2.2841249257    -2.7820541151    -4.6659750549
 F     -1.5495096266    -2.7365316979    -5.2129275865
 H     -4.1401582881    -2.6228553613    -5.4205261675
 F     -4.0380360474    -2.7319057239    -4.5157786523
 H     -2.5402931036    -2.5618610190    -6.6576244252
 F     -3.3858711164    -2.5064912517    -7.0080827152
          6
Energy: -17.57349412353716 Kcal/mole
 H     -2.2673026377    -2.7966943370    -4.6514553563
 F     -1.5351960496    -2.7613539322    -5.2025088922
 H     -4.1396536726    -2.6910777464    -5.4068773336
 F     -4.0315644018    -2.7578330285    -4.4987201656
 H     -2.5431785068    -2.6445207174    -6.6453872193
 F     -3.3911593331    -2.6030950446    -6.9919437542
          6
Energy: -17.573752716059005 Kcal/mole
 H     -2.2711302917    -2.6804372901    -4.6175120226
 F     -1.5394947488    -2.6903115847    -5.1702334087
 H     -4.1374116395    -2.7569185717    -5.4004324851
 F     -4.0328037472    -2.7248173133    -4.4899844097
 H     -2.5228778096    -2.7594978764    -6.6286443393
 F     -3.3656614760    -2.8021294637    -6.9875137297
          6
Energy: -17.57138065121876 Kcal/mole
 H     -2.2658572814    -2.7439868410    -4.6354239971
 F     -1.5286861047    -2.7645627867    -5.1804416911
 H     -4.1470815498    -2.7530077932    -5.4003903284
 F     -4.0308048877    -2.7252408083    -4.4912161249
 H     -2.5409735463    -2.7945325882    -6.6294890343
 F     -3.3857985026    -2.8032957276    -6.9859760615
          6
Energy: -17.5752663423508 Kcal/mole
 H     -2.2607301479    -2.7709329848    -4.6496229471
 F     -1.5248636858    -2.7786767986    -5.1967331584
 H     -4.1212039883    -2.8519105359    -5.4115643878
 F     -4.0118413861    -2.8155674681    -4.5018347562
 H     -2.5125271063    -2.8580585219    -6.6464210611
 F     -3.3571402050    -2.8908377762    -7.0020096349
          6
Energy: -17.57558707396271 Kcal/mole
 H     -2.2497524954    -2.6330758323    -4.6394966111
 F     -1.5203360657    -2.6129847879    -5.1948676782
 H     -4.1161579304    -2.8964666269    -5.3831732887
 F     -4.0011664529    -2.7960391720    -4.4789718253
 H     -2.5255163912    -2.8242323373    -6.6407653215
 F     -3.3699584953    -2.9401003477    -6.9789681260
          6
Energy: -17.576101255359276 Kcal/mole
 H     -2.2612332313    -2.5973711717    -4.6402384746
 F     -1.5401743705    -2.5606808521    -5.2055852175
 H     -4.1161630522    -2.8824704517    -5.3846118833
 F     -4.0011661812    -2.7967816367    -4.4788955112
 H     -2.5406542024    -2.7883142614    -6.6427279578
 F     -3.3801238263    -2.9177502051    -6.9883087545
          6
Energy: -17.577224713073974 Kcal/mole
 H     -2.2586292393    -2.5754602086    -4.6394210287
 F     -1.5307632106    -2.5862273696    -5.1970805238
 H     -4.1260822796    -2.8379555517    -5.3935585099
 F     -4.0133411376    -2.7128743189    -4.4921523195
 H     -2.5316230877    -2.8476678104    -6.6284409653
 F     -3.3698334846    -2.9703524782    -6.9794976600
          6
Energy: -17.577330335967133 Kcal/mole
 H     -2.2605864291    -2.6420775216    -4.6131947225
 F     -1.5221878076    -2.6705589385    -5.1561913014
 H     -4.1091173882    -2.8141647966    -5.3929826119
 F     -4.0154002827    -2.7023356047    -4.4876648026
 H     -2.5033648153    -2.8933993272    -6.6129549803
 F     -3.3461282848    -2.9658163410    -6.9670658536
          6
Energy: -17.57842673978257 Kcal/mole
 H     -2.2604886304    -2.6444079828    -4.6129448282
 F     -1.5221929956    -2.6704353129    -5.1562045577
 H     -4.1180540508    -2.7971301339    -5.3944325227
 F     -4.0187963370    -2.7028700933    -4.4877065713
 H     -2.4980558015    -2.8724404224    -6.6132495841
 F     -3.3390480536    -2.9440719077    -6.9717045496
          6
Energy: -17.571758370036832 Kcal/mole
 H     -2.2788919599    -2.7000194285    -4.5974180838
 F     -1.5345629907    -2.7428497852    -5.1312991063
 H     -4.1528314197    -2.8154805693    -5.3753833575
 F     -4.0336194249    -2.7100576792    -4.4722978053
 H     -2.5098900576    -2.9258253022    -6.5919700075
 F     -3.3457140739    -2.9924276995    -6.9632533691
          6
Energy: -17.572908246463726 Kcal/mole
 H     -2.2678481816    -2.6761691730    -4.6175267664
 F     -1.5320707120    -2.7245623661    -5.1626676785
 H     -4.1293447182    -2.8188899083    -5.3844563523
 F     -4.0196879992    -2.7016242114    -4.4816201765
 H     -2.5118884467    -2.9146492196    -6.6132877890
 F     -3.3566839472    -2.9820853355    -6.9635190448
          6
Energy: -17.575441049988626 Kcal/mole
 H     -2.2783564279    -2.6531122631    -4.6024801103
 F     -1.5349326341    -2.7153260729    -5.1357150535
 H     -4.1371198885    -2.8202732515    -5.3747309273
 F     -4.0266803222    -2.6804151065    -4.4752133892
 H     -2.5198469967    -2.9486536713    -6.5917586844
 F     -3.3615116632    -3.0143200504    -6.9497775606
          6
Energy: -17.5745934950923 Kcal/mole
 H     -2.2694798135    -2.6268202755    -4.6055502816
 F     -1.5306410568    -2.7182640151    -5.1409420392
 H     -4.1302809759    -2.7501966970    -5.4091479929
 F     -4.0419773950    -2.6122187662    -4.5068988210
 H     -2.4980572694    -2.9278105456    -6.5806504415
 F     -3.3285656773    -2.9780249896    -6.9661673592
          6
Energy: -17.577030062374263 Kcal/mole
 H     -2.2686260625    -2.6194675504    -4.5931407990
 F     -1.5280179151    -2.6869767219    -5.1296397122
 H     -4.1214199637    -2.7402473774    -5.4073130800
 F     -4.0334510090    -2.6100208540    -4.5038798973
 H     -2.4979134288    -2.9048111336    -6.5977414697
 F     -3.3345471231    -2.9661231066    -6.9681114246
          6
Energy: -17.571916556308906 Kcal/mole
 H     -2.2719985366    -2.6115313787    -4.6144180756
 F     -1.5304048705    -2.6795114984    -5.1494942736
 H     -4.1191047994    -2.7568924465    -5.3942176777
 F     -4.0326803508    -2.6197333523    -4.4916617528
 H     -2.5001690190    -2.8917231453    -6.6004814316
 F     -3.3390623817    -2.9659786389    -6.9632941211
          6
Energy: -17.57674323476573 Kcal/mole
 H     -2.2693744236    -2.6547529827    -4.5960479586
 F     -1.5281325769    -2.7387416434    -5.1293353386
 H     -4.1257779788    -2.7543065073    -5.3939417407
 F     -4.0323263541    -2.6198705304    -4.4916763906
 H     -2.4991725361    -2.9203255421    -6.5981282721
 F     -3.3391152429    -2.9644613479    -6.9634189508
          6
Energy: -17.57861624752843 Kcal/mole
 H     -2.2693192394    -2.6578065461    -4.5954998484
 F     -1.5281355043    -2.7385796589    -5.1293644146
 H     -4.1231205326    -2.7441749187    -5.3956608260
 F     -4.0324673254    -2.6204079878    -4.4915851971
 H     -2.5087095894    -2.9406302044    -6.5878980330
 F     -3.3484169517    -2.9826382149    -6.9539798173
          6
Energy: -17.576235990509588 Kcal/mole
 H     -2.2703995801    -2.6737251654    -4.5948427506
 F     -1.5280781947    -2.7377352129    -5.1293992721
 H     -4.1329010404    -2.7621641128    -5.3885038665
 F     -4.0363010586    -2.6413519109    -4.4846444441
 H     -2.5107537832    -2.9348303912    -6.5839514457
 F     -3.3483085119    -2.9829458816    -6.9541891747
          6
Energy: -17.577980627484408 Kcal/mole
 H     -2.2696187010    -2.6369145978    -4.5995230544
 F     -1.5281196185    -2.7396879285    -5.1291509928
 H     -4.1307201986    -2.7391613440    -5.3945809036
 F     -4.0315985551    -2.5974437937    -4.4940366039
 H     -2.4974839620    -2.9626021625    -6.5877582223
 F     -3.3345553294    -3.0068614554    -6.9595668302
          6
Energy: -17.579003415155455 Kcal/mole
 H     -2.2763006135    -2.6367197065    -4.5971214082
 F     -1.5327010764    -2.7419478946    -5.1233112569
 H     -4.1298088676    -2.7257714001    -5.4150188975
 F     -4.0413402839    -2.5749787474    -4.5148389790
 H     -2.4968986500    -2.9628244437    -6.5790692324
 F     -3.3311739520    -3.0093107941    -6.9568426298
          6
Energy: -17.577592205071312 Kcal/mole
 H     -2.2752144756    -2.6227752619    -4.5985729924
 F     -1.5327586935    -2.7426876152    -5.1232342537
 H     -4.1255222774    -2.7279754965    -5.4163600493
 F     -4.0412529023    -2.5683143297    -4.5173072232
 H     -2.4972004511    -2.9681188010    -6.5777927104
 F     -3.3311579421    -3.0090299407    -6.9569103463
          6
Energy: -17.577631058832594 Kcal/mole
 H     -2.2833724341    -2.6344892023    -4.5903792146
 F     -1.5338916757    -2.7513632283    -5.1056539517
 H     -4.1311634702    -2.7038165942    -5.4179315725
 F     -4.0452123615    -2.5472636207    -4.5184914281
 H     -2.4938615574    -2.9769016391    -6.5843723530
 F     -3.3313350627    -3.0085640314    -6.9565613115
          6
Energy: -17.57871714663935 Kcal/mole
 H     -2.2805674150    -2.6270264161    -4.5880623744
 F     -1.5340404754    -2.7517591119    -5.1057768548
 H     -4.1319506855    -2.7029259777    -5.4138590117
 F     -4.0448485764    -2.5442935298    -4.5148940686
 H     -2.4969079956    -2.9703120921    -6.5782063905
 F     -3.3311734562    -3.0089135916    -6.9568884016
          6
Energy: -17.57842173493117 Kcal/mole
 H     -2.2799901102    -2.6260966201    -4.5874555283
 F     -1.5340711001    -2.7518084354    -5.1058090465
 H     -4.1299995370    -2.7051987224    -5.4107499599
 F     -4.0406131254    -2.5436770665    -4.5125240284
 H     -2.4952076856    -2.9745201634    -6.5815676982
 F     -3.3312636537    -3.0086903632    -6.9567100919
          6
Energy: -17.578460658533686 Kcal/mole
 H     -2.2783690839    -2.6310341898    -4.5839651868
 F     -1.5341570918    -2.7515465087    -5.1059942011
 H     -4.1265980602    -2.6994822481    -5.4120894201
 F     -4.0407935659    -2.5439803122    -4.5124529731
 H     -2.4964562664    -2.9738640715    -6.5788579247
 F     -3.3311974194    -3.0087251673    -6.9568538392
          6
Energy: -17.579527379905528 Kcal/mole
 H     -2.2798742661    -2.6266996576    -4.5871430594
 F     -1.5340772454    -2.7517764457    -5.1058256223
 H     -4.1256188433    -2.6955016675    -5.4128606743
 F     -4.0408455111    -2.5441914728    -4.5124120599
 H     -2.4961457640    -2.9712769475    -6.5717340385
 F     -3.3294363340    -3.0012100926    -6.9533357062
          6
Energy: -17.580049725738093 Kcal/mole
 H     -2.2809120846    -2.6300871379    -4.5878316607
 F     -1.5340221915    -2.7515967477    -5.1057890936
 H     -4.1271124700    -2.6980531265    -5.4122860078
 F     -4.0407662777    -2.5440561238    -4.5124425446
 H     -2.4951682409    -2.9694104750    -6.5740284185
 F     -3.3294881893    -3.0013091047    -6.9532139946
