          6
Energy: -17.459695136874075 Kcal/mole
 H     -4.9557523001    -0.8579239346     0.4444594846
 F     -4.4529795836    -0.2437115549     0.9036454471
 H     -4.4775451547    -1.3933774778    -1.4894912354
 F     -5.1553342201    -1.8103447798    -1.0338277060
 H     -3.3469171717    -0.0293399783    -0.5079921647
 F     -3.1607473672    -0.2133893324    -1.3868298284
          6
Energy: -17.489804209511874 Kcal/mole
 H     -2.8066705143    -0.8513333245    -0.2941076013
 F     -2.6480655658    -0.1188963278     0.2343519676
 H     -4.5512275097    -1.8868625431    -0.1336827007
 F     -3.8926979738    -2.1986682945    -0.6904636484
 H     -4.1903294001    -0.2415794410     0.9503394180
 F     -5.0151026710    -0.6350179465     1.0267867476
          6
Energy: -17.372069142755493 Kcal/mole
 H     -2.3666578391    -0.3724149254     0.3837818619
 F     -2.6672147345     0.0555452281     1.1370445383
 H     -3.5184842225    -0.3092721630    -1.3255671250
 F     -2.7103072827    -0.7381357972    -1.3873329507
 H     -4.2685189961     0.5766637720     0.3531587881
 F     -4.7056676909     0.5818299774    -0.4529201962
          6
Energy: -17.40138512555768 Kcal/mole
 H     -2.2764949855    -0.7953008414    -1.0436039109
 F     -2.3195766857    -0.5973762224    -0.1492556497
 H     -3.3143334096     0.4164761790    -2.3988139055
 F     -2.7924604822    -0.2599064299    -2.7320468780
 H     -3.3392692284     0.8450467150    -0.4047686810
 F     -3.8093661377     1.3369409600    -1.0195352609
          6
Energy: -17.532571094476396 Kcal/mole
 H     -2.3708541007    -0.3804120136    -0.0551352620
 F     -1.4874684420    -0.6197645418    -0.1119608309
 H     -2.9243642946     1.5735108115    -0.2651922918
 F     -3.5647310306     0.9336501970    -0.1189122948
 H     -0.9553249851     1.0866869032    -0.4487540584
 F     -1.2377595321     1.9530998901    -0.5509708025
          6
Energy: -17.500404747031098 Kcal/mole
 H     -1.3614083535     1.1984605214    -2.4188691680
 F     -0.8783725770     1.9220897209    -2.7085693927
 H     -2.5539272439     1.3956507492    -0.7934720743
 F     -2.4540465728     0.5745280522    -1.1892881527
 H     -1.5237847380     3.0091501978    -1.5112278892
 F     -2.0890947423     3.1375301958    -0.8007124600
          6
Energy: -17.398065117900103 Kcal/mole
 H     -3.0660674100     1.7718272798    -5.2061550745
 F     -2.6352081898     2.2730815474    -5.8417598980
 H     -4.8246165099     2.3336480379    -4.4258204581
 F     -4.4869039644     1.5216715690    -4.1659484695
 H     -3.8764083493     3.6448896412    -5.6919064239
 F     -4.6806311840     3.8553874363    -5.3048595141
          6
Energy: -17.372393646535045 Kcal/mole
 H     -2.8076006306     1.2650150196    -5.5899768012
 F     -2.8911695185     1.6230026758    -6.4300661292
 H     -3.7114881904     2.1796584281    -4.0055124679
 F     -3.1924109141     1.4333995503    -3.8849078721
 H     -3.9671648746     3.0134558772    -5.8202391390
 F     -4.3971391203     3.3258354180    -5.0729572842
          6
Energy: -17.39652738434063 Kcal/mole
 H     -1.4053228946     1.6930058413    -5.9493302580
 F     -1.3611861634     2.3538672791    -6.5835251090
 H     -2.8232452864     1.4382209222    -4.6120706459
 F     -2.0953887501     0.8805726644    -4.6239988946
 H     -3.0012974338     2.9976512252    -5.9770160976
 F     -3.6693158746     2.8331504564    -5.3707324513
          6
Energy: -17.431329169588423 Kcal/mole
 H     -0.2072104520     3.3399853904    -3.0590319015
 F     -0.1359115316     4.1294431768    -3.5200762240
 H     -2.0150855375     2.4675851037    -2.5632183309
 F     -1.2074137184     2.0888668948    -2.3507853983
 H     -1.9173593587     4.1912266622    -3.6731327607
 F     -2.7412174003     3.8569338158    -3.4486439633
          6
Energy: -17.41159821200779 Kcal/mole
 H      0.0667019952     2.2736133591    -3.3777405822
 F      0.3757296435     2.7857910972    -4.0727692702
 H     -1.9129700943     2.5425471602    -2.6935536092
 F     -1.3958870246     1.8778550915    -2.3306506568
 H     -1.1355401438     3.7401587671    -4.2386646450
 F     -1.9907303830     3.8844317007    -3.9407989447
          6
Energy: -17.329148899250868 Kcal/mole
 H     -0.8719546510     2.2378601091    -3.7306700498
 F     -0.5747028078     2.2700922385    -4.5975561043
 H     -2.2366163652     3.4701031159    -3.1049424846
 F     -1.8677720727     2.8865618098    -2.5013512056
 H     -1.6716971833     3.5482191380    -4.9424319881
 F     -2.3327949523     4.1115540265    -4.6483358420
          6
Energy: -17.492879546901065 Kcal/mole
 H     -2.2428319543     2.7178348509    -2.5650719192
 F     -2.9530700239     2.1814999072    -2.7859694353
 H     -1.5557672827     4.1894678419    -3.8426883399
 F     -1.1598413681     4.0380150540    -3.0295501455
 H     -3.1532045509     2.9955592742    -4.2980413189
 F     -2.9375386524     3.6595907477    -4.8925490333
          6
Energy: -17.392449441927283 Kcal/mole
 H     -2.3028604188     3.2125169895    -2.4036715614
 F     -2.9181893579     2.5390416304    -2.4968930038
 H     -0.9722928919     3.5095910245    -3.8745975083
 F     -0.9263007462     4.0233872973    -3.1164503507
 H     -2.3752305456     2.0496788141    -4.0641725019
 F     -1.8450072083     2.2221041467    -4.7921984061
          6
Energy: -17.36791815815036 Kcal/mole
 H     -3.1380288598     1.9731794846    -2.7029509444
 F     -3.6481006637     1.4533582660    -3.2601776986
 H     -1.0382862793     1.9680672753    -3.0791007733
 F     -1.3329467438     2.5076404281    -2.3987148361
 H     -2.2894502931     0.8532519566    -4.1420592271
 F     -1.3909785910     0.7922295927    -4.3150154983
          6
Energy: -17.47013089202187 Kcal/mole
 H     -2.6792257312     1.3563459486    -2.3262305524
 F     -3.3162306203     1.4008572807    -2.9843585891
 H     -1.0567767811     0.1244048412    -2.6045807277
 F     -1.1203241921     0.6208809420    -1.8362304118
 H     -2.4357421341     0.2861761276    -4.1198911028
 F     -1.7277189705    -0.2928240457    -4.1858532068
          6
Energy: -17.438755735421978 Kcal/mole
 H     -3.6656077267     0.4956057698    -1.0344706273
 F     -4.2841300183     0.7421303442    -1.6649821728
 H     -1.9723266831    -0.6081294863    -1.6330753089
 F     -2.0555917494    -0.3127156104    -0.7689650320
 H     -3.4527151855    -0.1554255517    -2.9694661240
 F     -2.7246050243    -0.6528017262    -3.2211832950
          6
Energy: -17.557807193122358 Kcal/mole
 H     -3.5414477565    -0.1784804067    -0.8173374522
 F     -2.9813255374     0.4514625555    -1.1783415574
 H     -4.7251084071    -1.3188170227    -1.9998368451
 F     -4.7426272147    -1.4596634488    -1.0938874119
 H     -3.5588858515     0.1185873680    -2.8259236206
 F     -4.0998152832    -0.3899793176    -3.3641097187
          6
Energy: -17.532981947310702 Kcal/mole
 H     -4.5840506607    -0.2376690105    -0.8863815770
 F     -4.3978660351     0.6593385487    -0.9264031197
 H     -4.2082138943    -1.4178443990    -2.4692702333
 F     -4.5571462646    -1.7968154027    -1.7106424067
 H     -3.8098113802     0.5270799660    -2.6303550843
 F     -3.6604235440    -0.0224303338    -3.3491114442
          6
Energy: -17.434715808432657 Kcal/mole
 H     -4.0755958243    -0.2902690728    -1.7811622784
 F     -3.4028822376     0.2482306935    -1.4675328283
 H     -3.8045027534    -1.7336441204    -3.1335897401
 F     -4.6417296690    -1.6207739326    -2.7769380716
 H     -2.2066768232    -0.6438526438    -2.4820183673
 F     -2.1370677673    -1.3034159376    -3.1152796410
          6
Energy: -17.412093584726733 Kcal/mole
 H     -4.5944920902    -1.0458233870    -1.3040877217
 F     -4.0795391828    -0.9195435210    -0.5559126762
 H     -3.8270708282    -0.8629813143    -3.1535171958
 F     -4.7106369391    -1.0906482250    -3.0620420328
 H     -2.5367872876    -0.6797979144    -1.5277991762
 F     -2.2678144800    -0.5670895166    -2.3971894487
          6
Energy: -17.40496747467529 Kcal/mole
 H     -4.9396742322    -2.3461224272    -2.6880741058
 F     -4.4605906841    -3.0152896350    -2.2836199033
 H     -3.9404320589    -0.7748455633    -3.4568650377
 F     -4.8517691966    -0.8131887192    -3.5511169548
 H     -2.8751529162    -2.1780215084    -2.5121775158
 F     -2.4589169002    -1.4026609788    -2.7699615884
          6
Energy: -17.515611262393804 Kcal/mole
 H     -4.4171851887    -1.5599300259    -2.4260698578
 F     -4.0980854734    -2.4188689603    -2.3901772594
 H     -3.3865927413     0.0095570135    -3.1378737613
 F     -4.2400223511     0.1174678726    -2.8202227771
 H     -2.5168332691    -1.8852289397    -3.0401725664
 F     -2.0335296847    -1.1682291845    -3.3454887899
          6
Energy: -17.48985640317227 Kcal/mole
 H     -3.0657535844    -2.5519526604    -1.9667309267
 F     -2.3815359532    -3.0487829393    -1.6119142033
 H     -2.7109153313    -0.8085604157    -2.9254924714
 F     -3.5687247065    -1.1156887358    -2.8219344167
 H     -1.1561024142    -1.8460510156    -2.1213857642
 F     -1.0320835902    -1.0598104653    -2.5767253390
          6
Energy: -17.500659404529927 Kcal/mole
 H     -3.6034887374    -1.8712247826    -1.6740148176
 F     -2.9205221323    -1.8452911797    -1.0626449912
 H     -3.3882832752    -3.2241757826    -3.2069093403
 F     -4.1671245519    -2.7433398990    -3.1513025167
 H     -1.9325200880    -3.0911178375    -1.8499033989
 F     -1.8367198263    -3.6756258333    -2.5499474780
          6
Energy: -17.488877397859028 Kcal/mole
 H     -2.7822678545    -1.5198710460    -2.9147117069
 F     -1.9540381445    -1.3355363809    -2.5669398297
 H     -3.3302661498    -3.3892508810    -3.3712298139
 F     -3.9376374143    -2.7142881245    -3.4993486039
 H     -1.5514487403    -3.0239768847    -2.5876291956
 F     -1.7497331218    -3.8851264012    -2.8325655428
          6
Energy: -17.512254276023782 Kcal/mole
 H     -2.4808073994    -1.5187988741    -2.9736053088
 F     -1.6479588999    -1.5281337254    -2.5899840927
 H     -2.8757956068    -2.8221063048    -4.5000483429
 F     -3.5262316049    -2.2577257888    -4.1849346401
 H     -1.0378618028    -2.7521338791    -3.7181409438
 F     -1.1885365639    -3.3380188667    -4.4072888943
          6
Energy: -17.50284207522276 Kcal/mole
 H     -2.5846510188    -1.0285329854    -3.3200617863
 F     -1.7668880956    -0.6389839418    -3.1772180115
 H     -2.8286878421    -2.9012089147    -4.0330936669
 F     -3.5600312446    -2.3745437693    -3.8638315853
 H     -0.9978678734    -2.1290710507    -3.6966703575
 F     -1.0624538170    -2.9946781791    -3.9923762168
          6
Energy: -17.48576572701876 Kcal/mole
 H     -2.7681354798    -2.7485145871    -3.1020044985
 F     -1.9366477273    -2.7604864514    -2.7155154405
 H     -3.0238644333    -2.8618716500    -5.0763339242
 F     -3.7588319401    -2.8604515443    -4.5279638419
 H     -1.1519420422    -2.7625528556    -4.3201304437
 F     -1.2839866893    -2.8429762743    -5.2240028268
          6
Energy: -17.506187172669343 Kcal/mole
 H     -3.1206721841    -2.8906721109    -3.1418651046
 F     -2.3952744022    -2.5558856278    -2.6917483766
 H     -3.0198039561    -4.0718734483    -4.7327882911
 F     -3.8438400694    -3.8520311524    -4.3958567713
 H     -1.2904152983    -3.3704448380    -3.8629398703
 F     -1.2447124582    -3.9185712317    -4.5966685033
          6
Energy: -17.48828263692053 Kcal/mole
 H     -2.7740985817    -2.1216378014    -4.8920234319
 F     -1.9719713308    -1.6866890451    -4.8009166110
 H     -3.1314439662    -3.8891196768    -4.1006690142
 F     -3.8030323465    -3.4593639438    -4.5536238214
 H     -1.2950515078    -3.0576650234    -3.8974248405
 F     -1.4904059551    -3.8613537370    -3.5014323006
          6
Energy: -17.40562104244958 Kcal/mole
 H     -2.0393746737    -2.3373985720    -4.9106859644
 F     -1.1773804834    -2.2287296885    -5.2040221020
 H     -2.4605516110    -2.9332719798    -3.1134512115
 F     -3.1766958873    -2.8104257724    -3.6728573115
 H     -0.4948796171    -2.7006046192    -3.6248991342
 F     -0.7392268587    -2.9614772961    -2.7804295539
          6
Energy: -17.474721931509407 Kcal/mole
 H     -1.6465282335    -2.1502095079    -4.7318467068
 F     -0.7442647101    -2.0023921544    -4.6614225319
 H     -2.5480681948    -3.6701986252    -3.7585673540
 F     -3.0044044040    -3.1272076999    -4.3397791220
 H     -0.5282494822    -3.3288679518    -3.5585727302
 F     -0.9062159118    -4.0131230082    -3.0791716497
          6
Energy: -17.528774018088768 Kcal/mole
 H     -1.9993960329    -2.2576167773    -4.2994503663
 F     -1.2710402743    -1.8738435598    -3.8955877580
 H     -2.3938489252    -4.2137316176    -4.0874825088
 F     -2.9713207270    -3.6809683180    -4.5603234807
 H     -0.8034100628    -3.4263753025    -3.1524635472
 F     -0.9616218008    -4.3275093002    -3.0906932939
          6
Energy: -17.466306144507712 Kcal/mole
 H     -2.6589838660    -2.4128458553    -3.4123289208
 F     -1.8277923091    -2.0500308978    -3.2767748640
 H     -2.7213015294    -4.4042658081    -4.0118733630
 F     -3.5004308790    -3.9492943865    -3.8480214109
 H     -0.9679866971    -3.4872096576    -3.7897959052
 F     -0.9465919227    -4.3679713063    -4.0441385515
          6
Energy: -17.550935852569523 Kcal/mole
 H     -2.9562557468    -2.2772955547    -4.0117444693
 F     -2.1767468929    -1.7944034592    -4.0201212654
 H     -3.0827151214    -4.0113642422    -5.0245558248
 F     -3.8139151597    -3.7026515955    -4.5652824794
 H     -1.3283193996    -2.9728247674    -5.0359204778
 F     -1.3935675680    -3.7502839814    -5.5177802573
          6
Energy: -17.456878579897875 Kcal/mole
 H     -2.7385118497    -2.6893074045    -4.7867152538
 F     -2.0135936666    -2.5792566435    -4.2360143751
 H     -3.6880034197    -4.4913776962    -4.6829082880
 F     -4.0390518421    -3.8310005008    -5.2135267620
 H     -2.0323103297    -4.1988258276    -3.5551414094
 F     -2.4252890008    -5.0272302910    -3.5409003059
          6
Energy: -17.523281273152293 Kcal/mole
 H     -2.3075781440    -2.6204527897    -5.0635150138
 F     -1.5824635219    -2.5846021614    -4.5033252984
 H     -3.0499566604    -4.4070622124    -5.5746658388
 F     -3.4685049670    -3.6653334090    -5.9145845014
 H     -1.5063807884    -4.3339204546    -4.3229904016
 F     -1.8389996292    -5.1557579126    -4.5571631996
          6
Energy: -17.484127717710123 Kcal/mole
 H     -1.8343977463    -2.9871173955    -5.6110374434
 F     -1.5470313166    -2.8854710257    -4.7461804895
 H     -2.8109229445    -4.6587606062    -6.1635661534
 F     -2.7153906782    -3.9708923930    -6.7623982729
 H     -2.1514313178    -4.5107171650    -4.2415570627
 F     -2.5267480813    -5.2872481690    -4.5530469129
          6
Energy: -17.51572163976863 Kcal/mole
 H     -1.5465432579    -3.2259963007    -5.8578063089
 F     -0.8968872917    -3.5468187908    -5.2957484335
 H     -3.3003647723    -4.2356237038    -6.1513368818
 F     -3.1358834064    -3.4339777854    -6.5650985303
 H     -1.7902083710    -5.0261571308    -4.9527120142
 F     -2.5659356394    -5.5006073498    -5.0711737999
          6
Energy: -17.4919862817315 Kcal/mole
 H     -1.6326352893    -3.1318997861    -5.7777224947
 F     -0.7644286242    -3.4239402847    -5.8203667671
 H     -3.1861913489    -4.4614839762    -5.6540066850
 F     -3.3376371420    -3.5588540077    -5.5973294254
 H     -1.2524898410    -5.0871534839    -5.8558293941
 F     -1.9104741726    -5.7253136950    -5.8822332614
          6
Energy: -17.518150406805773 Kcal/mole
 H     -1.1647825375    -3.1860074040    -5.6676151970
 F     -0.5904889559    -3.5410265446    -6.2881289293
 H     -3.0608252003    -3.8804292467    -5.6057413121
 F     -2.8392651364    -3.1814262920    -5.0551098497
 H     -1.7428249545    -4.7090226258    -6.8703905692
 F     -2.5932046068    -5.0477803808    -6.8157404972
          6
Energy: -17.519175349470004 Kcal/mole
 H     -1.4180521821    -2.8288430316    -5.9801586143
 F     -0.9671815785    -3.2569282892    -6.6542118103
 H     -3.0399841668    -3.7268418023    -5.0795788175
 F     -2.7391132332    -2.9177322764    -4.7702126002
 H     -2.0728203994    -4.6429517398    -6.6550045235
 F     -2.8084510597    -5.0243718248    -6.2622511017
          6
Energy: -17.511914881095663 Kcal/mole
 H     -1.0431795549    -2.9939808468    -6.4897240035
 F     -1.0490092352    -3.4395285279    -7.2911865907
 H     -1.7319332700    -3.8454651467    -4.8171869641
 F     -1.4044498802    -2.9889419731    -4.8137689820
 H     -1.7218806933    -4.9117266475    -6.5530209056
 F     -2.0476824908    -5.3166518766    -5.7975225617
          6
Energy: -17.56246378077367 Kcal/mole
 H     -0.8444250579    -2.8557032453    -6.1174670429
 F     -0.4387742538    -3.3173929455    -6.7980396297
 H     -1.5722750273    -3.8955677218    -4.5343624040
 F     -1.6468028400    -2.9816357424    -4.5422960140
 H     -0.6614079065    -4.8914752246    -6.0216958339
 F     -0.9922453000    -5.3637950193    -5.3087094170
          6
Energy: -17.558972554899526 Kcal/mole
 H     -0.5298887812    -3.0728176890    -5.8426686895
 F     -0.1478811053    -3.4942402140    -6.5619476278
 H     -1.7721558563    -4.0140991728    -4.6120405556
 F     -1.5852290533    -3.1292763516    -4.4602645846
 H     -0.9533408554    -5.0105167816    -6.1655664598
 F     -1.5253048414    -5.4408036860    -5.5923305758
          6
Energy: -17.517569498055195 Kcal/mole
 H     -0.7211870591    -3.0604238851    -6.0197728869
 F     -0.3323365942    -3.4399034332    -6.7584741720
 H     -2.2136922712    -3.9023004232    -4.9662681739
 F     -1.9132010661    -3.0702379945    -4.7248843498
 H     -1.3712669711    -4.8601685786    -6.5742247917
 F     -2.0382284593    -5.2594644274    -6.0877947367
          6
Energy: -17.549353578795944 Kcal/mole
 H     -0.9099209371    -3.0491780628    -6.4130910728
 F     -0.5687649558    -3.6192062080    -7.0452061811
 H     -2.1902665822    -3.7562832244    -5.0225372809
 F     -1.9560533363    -2.8699171010    -5.0028332013
 H     -1.4741178378    -5.0042724781    -6.4526829099
 F     -2.0340161101    -5.3336455542    -5.8054454716
          6
Energy: -17.559786941453922 Kcal/mole
 H     -1.6246100794    -3.0786866812    -6.6440774314
 F     -1.1499901799    -3.6009114148    -7.2296594313
 H     -2.6860337485    -3.9276759160    -5.1658246257
 F     -2.6899297419    -3.0146806148    -5.2513430518
 H     -1.6278581450    -5.1157513383    -6.4176890747
 F     -2.1349734415    -5.4863540485    -5.7495747827
          6
Energy: -17.5580996314373 Kcal/mole
 H     -1.0358900345    -3.2620649448    -6.3256474568
 F     -0.8013136748    -3.7344049562    -7.0758193338
 H     -2.3182879817    -4.1116744980    -4.9697239711
 F     -2.0023643462    -3.2680448426    -4.7983464319
 H     -1.7755097907    -5.1353070439    -6.6178914092
 F     -2.3457351064    -5.5179462250    -6.0101749075
          6
Energy: -17.562229109140276 Kcal/mole
 H     -1.3864188007    -3.0420756189    -6.6093460394
 F     -1.1662068848    -3.5178951472    -7.3616700976
 H     -2.2183496464    -4.0089588436    -5.0273199707
 F     -2.0522568956    -3.1093111237    -4.9645810020
 H     -1.7236109592    -5.0616962686    -6.6698192288
 F     -2.1115140717    -5.4965487230    -5.9617771974
          6
Energy: -17.517231421778206 Kcal/mole
 H     -1.4454648970    -3.0774795167    -6.9028085365
 F     -1.0200227297    -3.6400821772    -7.4887831168
 H     -2.6718198623    -3.8955169230    -5.4352597547
 F     -2.5115302558    -2.9927385824    -5.4489531753
 H     -1.7551420039    -5.0928900413    -6.8042976629
 F     -2.3233368749    -5.4789442802    -6.1968392583
          6
Energy: -17.531098962725878 Kcal/mole
 H     -1.3323197904    -3.0740724745    -6.6766562662
 F     -0.9337647096    -3.5873645041    -7.3236293260
 H     -2.5605924756    -3.9415679846    -5.2632344835
 F     -2.4385388219    -3.0331078496    -5.2369269053
 H     -1.6408043097    -5.0685471078    -6.7000580371
 F     -2.1671136001    -5.4790639695    -6.0712787142
          6
Energy: -17.54783032458903 Kcal/mole
 H     -1.6550791166    -3.0939225551    -6.8559777297
 F     -0.9698895134    -3.5106948077    -7.3006181430
 H     -2.7637662097    -4.1187903536    -5.4897011623
 F     -2.9382585556    -3.2343171201    -5.6574763703
 H     -1.2533756371    -5.0351431855    -6.4680937045
 F     -1.7510029865    -5.4949689129    -5.8501808292
          6
Energy: -17.54709458032886 Kcal/mole
 H     -1.6759416958    -3.1070607764    -6.9367390498
 F     -1.0287942031    -3.5348556461    -7.4256978129
 H     -2.7642239496    -4.0801829823    -5.5506259092
 F     -2.8913625547    -3.1826268095    -5.6888926503
 H     -1.2975283697    -5.0791231064    -6.5805562262
 F     -1.8040274923    -5.5227421128    -5.9580212345
          6
Energy: -17.56186200624984 Kcal/mole
 H     -1.5657423635    -3.0423652912    -6.8145673718
 F     -0.8063085056    -3.4621686431    -7.1110709320
 H     -3.0254886273    -4.1064935575    -5.8842124981
 F     -3.1369946316    -3.2074722526    -6.0263958454
 H     -1.3485816540    -5.0166021674    -6.5521699892
 F     -1.9912809368    -5.5158110947    -6.1295388512
          6
Energy: -17.569495023366017 Kcal/mole
 H     -1.5649900955    -3.0345677462    -6.8528427874
 F     -0.7989224750    -3.4627222279    -7.1187622123
 H     -3.0900331959    -4.0641900773    -6.0018877814
 F     -3.1747847797    -3.1595827174    -6.1259510455
 H     -1.3969543187    -5.0374325597    -6.5882011418
 F     -2.0926723617    -5.5067244948    -6.2185655316
          6
Energy: -17.542685403042697 Kcal/mole
 H     -1.5554019631    -3.0071784048    -6.7832656820
 F     -0.7568250660    -3.4105475488    -6.9844056160
 H     -3.1041999324    -4.0612255160    -6.0685744421
 F     -3.1939003636    -3.1544371991    -6.1714227819
 H     -1.3970353018    -5.0211052656    -6.5361798949
 F     -2.1287847785    -5.4984025028    -6.2575779374
          6
Energy: -17.57023325142427 Kcal/mole
 H     -1.5401215171    -2.9254195668    -6.5688188173
 F     -0.7549563765    -3.3127082140    -6.8416048246
 H     -3.1231178485    -4.0560063834    -5.9786727362
 F     -3.1945784754    -3.1419609903    -5.9960910626
 H     -1.3758167591    -4.9363984472    -6.5491770366
 F     -2.0822497281    -5.4614204390    -6.2918963176
          6
Energy: -17.555045799230186 Kcal/mole
 H     -1.5683589566    -2.9320840211    -6.6242373761
 F     -0.7346582153    -3.2935604871    -6.7473910949
 H     -3.1361606764    -4.0315814591    -6.0011853408
 F     -3.2341459070    -3.1388897426    -6.1866291162
 H     -1.3041488686    -4.8877088019    -6.2852218129
 F     -2.0001611801    -5.4052440424    -5.9875422250
          6
Energy: -17.56184216303842 Kcal/mole
 H     -1.6166235904    -2.9583163638    -6.6913453161
 F     -0.7803942563    -3.3122442319    -6.8191911802
 H     -3.1491765109    -4.0719551948    -6.0516273535
 F     -3.2825241263    -3.1799172095    -6.2170832272
 H     -1.3252072310    -4.8949823820    -6.2904229747
 F     -2.0117265398    -5.4264996850    -5.9953473991
          6
Energy: -17.57444276156326 Kcal/mole
 H     -1.6134934079    -2.9570560773    -6.7400134603
 F     -0.7818586665    -3.3251935597    -6.8572629846
 H     -3.1397828030    -4.0536084469    -5.9806673005
 F     -3.2842946644    -3.1781173525    -6.2120126388
 H     -1.3065674600    -4.8764250208    -6.2210377708
 F     -1.9921537904    -5.3836700401    -5.8840468599
          6
Energy: -17.571503667632214 Kcal/mole
 H     -1.6094244518    -2.9303394703    -6.7212863710
 F     -0.7779113707    -3.3010319165    -6.8311139911
 H     -3.1265656977    -4.0501220186    -6.0129878778
 F     -3.2786782182    -3.1736210664    -6.2354667798
 H     -1.3104954586    -4.8748680341    -6.2300398096
 F     -1.9944876770    -5.3908537124    -5.9032334066
          6
Energy: -17.578083414668583 Kcal/mole
 H     -1.6199971576    -2.9272923607    -6.7194744744
 F     -0.7838557206    -3.2905932514    -6.8183125240
 H     -3.1569582695    -4.0474566281    -5.9991665813
 F     -3.2987158549    -3.1709040996    -6.2281850340
 H     -1.3111568226    -4.8616325036    -6.2263042477
 F     -1.9922656394    -5.3814700084    -5.8995799780
          6
Energy: -17.58009996276354 Kcal/mole
 H     -1.6201837538    -2.9282976358    -6.7173867040
 F     -0.7838458221    -3.2905399239    -6.8184232754
 H     -3.1502314395    -4.0480148230    -6.0056687481
 F     -3.2990726977    -3.1708744886    -6.2278401091
 H     -1.3073858955    -4.8644793368    -6.2229181748
 F     -1.9924656783    -5.3813189904    -5.8997596014
