          6
Energy: -17.577680118775106 Kcal/mole
 H     -2.2272778388    -2.9406715617    -4.7787170332
 F     -1.4883522194    -3.0426765587    -5.3120770519
 H     -4.0343582296    -2.4911987951    -5.5731123003
 F     -3.9472448465    -2.5961594143    -4.6663137963
 H     -2.4157008440    -2.7195761536    -6.7728445122
 F     -3.2251639534    -2.5090312966    -7.1487824560
          6
Energy: -17.576628110070942 Kcal/mole
 H     -2.2291318789    -2.9487232028    -4.7736539602
 F     -1.4950401293    -3.0649837415    -5.3107589688
 H     -4.0216278842    -2.4890544941    -5.5739898497
 F     -3.9479201619    -2.5962731645    -4.6662672443
 H     -2.4142248737    -2.7287671621    -6.7726013368
 F     -3.2216217460    -2.5060281053    -7.1459464898
          6
Energy: -17.576083935099575 Kcal/mole
 H     -2.2438796302    -2.9465635604    -4.7796165488
 F     -1.4981297692    -3.0363858247    -5.3056185504
 H     -4.0403826506    -2.5097278587    -5.5909707324
 F     -3.9700425161    -2.6200059636    -4.6833474597
 H     -2.4160855035    -2.6886153301    -6.7812461276
 F     -3.2324218812    -2.4870360261    -7.1471008840
          6
Energy: -17.57381839472697 Kcal/mole
 H     -2.2426264065    -2.9413260726    -4.7797060202
 F     -1.4932976427    -3.0291828009    -5.3009320740
 H     -4.0340043655    -2.5122471297    -5.5830142816
 F     -3.9692101044    -2.6297700081    -4.6758874565
 H     -2.4088546159    -2.6988604173    -6.7740989640
 F     -3.2255717866    -2.5001193722    -7.1406559992
          6
Energy: -17.578799257603464 Kcal/mole
 H     -2.2373281998    -2.9544853893    -4.7701662839
 F     -1.4935787004    -3.0284847296    -5.3014381349
 H     -4.0370972632    -2.5063362427    -5.5820011491
 F     -3.9690460334    -2.6300835670    -4.6759412008
 H     -2.4104480604    -2.6718613761    -6.7689500245
 F     -3.2217339567    -2.4754462333    -7.1485883870
          6
Energy: -17.577094388609908 Kcal/mole
 H     -2.2398146007    -2.9428277979    -4.7779289053
 F     -1.4941663355    -3.0063869397    -5.3078891869
 H     -4.0343250547    -2.4888495648    -5.5949627108
 F     -3.9789134280    -2.6150728438    -4.6883832959
 H     -2.3997370055    -2.6382789584    -6.7784637173
 F     -3.2134184674    -2.4405021005    -7.1522227214
          6
Energy: -17.576314169354987 Kcal/mole
 H     -2.2500353392    -2.9200338593    -4.7788169708
 F     -1.4944029703    -2.9539651844    -5.2972351305
 H     -4.0529990240    -2.5107056453    -5.6012175233
 F     -3.9908692105    -2.6595433785    -4.6985125796
 H     -2.4059816652    -2.6133662814    -6.7636402924
 F     -3.2153537508    -2.4298103898    -7.1536570380
          6
Energy: -17.57470756588424 Kcal/mole
 H     -2.2502410957    -2.9105244385    -4.7798322161
 F     -1.4943920554    -2.9544696372    -5.2971812741
 H     -4.0645991611    -2.5325841003    -5.6036652671
 F     -3.9902538500    -2.6583827770    -4.6983827324
 H     -2.4002023749    -2.5982294282    -6.7689014439
 F     -3.2156603288    -2.4306133649    -7.1533779460
          6
Energy: -17.57820547737134 Kcal/mole
 H     -2.2494001218    -2.9355380379    -4.7833698709
 F     -1.4955606940    -2.9818027883    -5.3034416832
 H     -4.0516583655    -2.5256083705    -5.6036329616
 F     -3.9909403293    -2.6587528234    -4.6983844462
 H     -2.3983967433    -2.6119499017    -6.7756252995
 F     -3.2119273982    -2.4290038641    -7.1571847586
          6
Energy: -17.578354896564917 Kcal/mole
 H     -2.2457759691    -2.9084203737    -4.7781523143
 F     -1.4881081579    -2.9280177142    -5.2943348713
 H     -4.0570350597    -2.5478461758    -5.6021692540
 F     -3.9951163346    -2.6880239958    -4.6980645862
 H     -2.3991264689    -2.6054557560    -6.7730747758
 F     -3.2178095991    -2.4493767038    -7.1555486466
          6
Energy: -17.575248241911993 Kcal/mole
 H     -2.2424055846    -2.8901027471    -4.7654874012
 F     -1.4911794926    -2.9161861886    -5.2907187910
 H     -4.0479931856    -2.5193552006    -5.6016525931
 F     -3.9936322032    -2.6555805766    -4.6964583981
 H     -2.3927181982    -2.5737115311    -6.7745511172
 F     -3.2115458499    -2.4156266304    -7.1558901280
          6
Energy: -17.576626583678035 Kcal/mole
 H     -2.2537427118    -2.8666947102    -4.7699558473
 F     -1.4904043179    -2.8856241193    -5.2777404214
 H     -4.0501195285    -2.5383489735    -5.6118754555
 F     -4.0005136525    -2.6739242015    -4.7063106513
 H     -2.3925500224    -2.5607263822    -6.7697933141
 F     -3.2115547712    -2.4163154626    -7.1561425184
          6
Energy: -17.57713698191276 Kcal/mole
 H     -2.2532638057    -2.8684065401    -4.7624445557
 F     -1.4944467780    -2.8823605431    -5.2771201857
 H     -4.0565890905    -2.5367529174    -5.6112560685
 F     -4.0001704572    -2.6740088686    -4.7063435083
 H     -2.3980011134    -2.5616822480    -6.7588014689
 F     -3.2112656034    -2.4162647561    -7.1567256104
          6
Energy: -17.575741822132272 Kcal/mole
 H     -2.2648052464    -2.8970807255    -4.7564244160
 F     -1.5004874274    -2.8844561350    -5.2629299849
 H     -4.0632633523    -2.5371286694    -5.6045264600
 F     -4.0184495374    -2.7207690622    -4.7072210894
 H     -2.3973855428    -2.5012511921    -6.7418105354
 F     -3.2150029862    -2.3481257783    -7.1277422960
          6
Energy: -17.579219592443565 Kcal/mole
 H     -2.2628495657    -2.8602624825    -4.7557715455
 F     -1.4945849782    -2.8318227262    -5.2556212267
 H     -4.0679799961    -2.5495991955    -5.6067359151
 F     -4.0181993303    -2.7201075296    -4.7071038829
 H     -2.3839864125    -2.4875546650    -6.7337361332
 F     -3.1976253617    -2.3453515731    -7.1320562820
          6
Energy: -17.57759169856689 Kcal/mole
 H     -2.2606108760    -2.8657951257    -4.7526929938
 F     -1.4947037355    -2.8315292323    -5.2557845367
 H     -4.0700510088    -2.5367478926    -5.6040823023
 F     -4.0180894679    -2.7207892615    -4.7072446510
 H     -2.3799401898    -2.4693502756    -6.7271837536
 F     -3.1888729329    -2.3136400641    -7.1300126841
          6
Energy: -17.573930578080592 Kcal/mole
 H     -2.2606620988    -2.9010702813    -4.7513032407
 F     -1.4918116963    -2.8709099811    -5.2501503264
 H     -4.0629708576    -2.5297887869    -5.6030058858
 F     -4.0184650535    -2.7211584260    -4.7073017524
 H     -2.3781605690    -2.4978372083    -6.7444243869
 F     -3.1950661988    -2.3368422369    -7.1286571435
          6
Energy: -17.577878333004605 Kcal/mole
 H     -2.2633364265    -2.9021646319    -4.7547573144
 F     -1.4937205352    -2.8683409610    -5.2521870474
 H     -4.0773373217    -2.5662658281    -5.6098515465
 F     -4.0249511342    -2.7557744918    -4.7141779710
 H     -2.3797111445    -2.4944022221    -6.7290291904
 F     -3.1907671360    -2.3413090085    -7.1285784947
          6
Energy: -17.578451764826696 Kcal/mole
 H     -2.2623656795    -2.9100246912    -4.7538570980
 F     -1.4937720311    -2.8679240030    -5.2522348018
 H     -4.0613507768    -2.5608320269    -5.6051910969
 F     -4.0190572040    -2.7577493790    -4.7105829088
 H     -2.3825740824    -2.4627746822    -6.7337354096
 F     -3.1988310117    -2.3122809718    -7.1235626386
          6
Energy: -17.577662651437777 Kcal/mole
 H     -2.2594079407    -2.9085774549    -4.7663714914
 F     -1.4947619515    -2.8727564264    -5.2712698625
 H     -4.0715282989    -2.5921735971    -5.6129693298
 F     -4.0197057883    -2.7759734836    -4.7160741134
 H     -2.3879063301    -2.4812963548    -6.7344833851
 F     -3.2007315615    -2.3336692133    -7.1324913880
          6
Energy: -17.579331272164666 Kcal/mole
 H     -2.2602690944    -2.9118208933    -4.7679200269
 F     -1.4947162693    -2.8725843695    -5.2711877163
 H     -4.0697122417    -2.5845227698    -5.6114687634
 F     -4.0198021259    -2.7763793423    -4.7161537150
 H     -2.3869743179    -2.4885088687    -6.7391609119
 F     -3.2007810025    -2.3332866061    -7.1322432560
          6
Energy: -17.57608900137103 Kcal/mole
 H     -2.2651701797    -2.8872373878    -4.7573955195
 F     -1.4957931936    -2.8569591537    -5.2554229100
 H     -4.0582999278    -2.5754698913    -5.6074372936
 F     -4.0112846476    -2.7583315283    -4.7100855314
 H     -2.3833503506    -2.4797585661    -6.7433520065
 F     -3.2009732456    -2.3337507894    -7.1320209281
          6
Energy: -17.578311759737403 Kcal/mole
 H     -2.2504719833    -2.9191757249    -4.7635956421
 F     -1.4871071527    -2.8714335986    -5.2694452489
 H     -4.0639499034    -2.5929700505    -5.6173182463
 F     -4.0153524682    -2.7909338164    -4.7232614044
 H     -2.3836674669    -2.4854667734    -6.7309344867
 F     -3.1969568900    -2.3412993451    -7.1292623251
          6
Energy: -17.576836688140133 Kcal/mole
 H     -2.2537055818    -2.9157299130    -4.7681954329
 F     -1.4869356177    -2.8716163909    -5.2692012406
 H     -4.0592913225    -2.6113834792    -5.6214262116
 F     -4.0155995951    -2.7899570265    -4.7230434863
 H     -2.3788184151    -2.5178272726    -6.7423600569
 F     -3.1950687337    -2.3916476593    -7.1407356619
          6
Energy: -17.57790544842817 Kcal/mole
 H     -2.2525798250    -2.8996636368    -4.7582702102
 F     -1.4842592603    -2.8628895873    -5.2574897802
 H     -4.0580646747    -2.6017759629    -5.6104996944
 F     -4.0069882937    -2.7624194474    -4.7091263677
 H     -2.3790516203    -2.5204084206    -6.7427088108
 F     -3.1950563627    -2.3915107354    -7.1407171613
          6
Energy: -17.579171313358586 Kcal/mole
 H     -2.2476508946    -2.9144908166    -4.7559601288
 F     -1.4804232166    -2.8760242441    -5.2567305481
 H     -4.0597286668    -2.6464860373    -5.6194290999
 F     -4.0051450209    -2.8056699379    -4.7180023910
 H     -2.3769893263    -2.5613867538    -6.7448941840
 F     -3.1928750384    -2.4333865110    -7.1434358288
          6
Energy: -17.575234306864957 Kcal/mole
 H     -2.2395964642    -2.9176496575    -4.7574030749
 F     -1.4795188427    -2.8939525749    -5.2698574218
 H     -4.0531395590    -2.6222807432    -5.6228770005
 F     -4.0033788732    -2.7912142622    -4.7229468141
 H     -2.3797652831    -2.5702261003    -6.7421734380
 F     -3.1927277803    -2.4329176041    -7.1435801581
          6
Energy: -17.577637241866626 Kcal/mole
 H     -2.2478484301    -2.9220837021    -4.7701034092
 F     -1.4790810950    -2.8937173591    -5.2691836984
 H     -4.0575712122    -2.6203754773    -5.6222604666
 F     -4.0031437843    -2.7913153321    -4.7229795198
 H     -2.3791318344    -2.5388566829    -6.7545580404
 F     -3.1947608093    -2.4038152542    -7.1512974861
          6
Energy: -17.577645246994962 Kcal/mole
 H     -2.2428414618    -2.9001174119    -4.7565087381
 F     -1.4753820646    -2.8676709885    -5.2573503331
 H     -4.0455868910    -2.5896008050    -5.6132440483
 F     -3.9998378289    -2.7601706377    -4.7134096438
 H     -2.3755281504    -2.5205615070    -6.7454889715
 F     -3.1932731267    -2.3899346898    -7.1393401976
          6
Energy: -17.576313734999474 Kcal/mole
 H     -2.2319552249    -2.8983024369    -4.7401201539
 F     -1.4759595543    -2.8677672687    -5.2582197096
 H     -4.0646147208    -2.6469858100    -5.5980986368
 F     -4.0075529288    -2.7948846192    -4.6949049177
 H     -2.3917616578    -2.5642081423    -6.7389496062
 F     -3.2113841844    -2.4544659234    -7.1352633194
          6
Energy: -17.578745290462223 Kcal/mole
 H     -2.2361831145    -2.8943597083    -4.7461276344
 F     -1.4757352746    -2.8679764213    -5.2579010266
 H     -4.0583437219    -2.6372854420    -5.5996710985
 F     -3.9987986521    -2.7895949650    -4.6973711518
 H     -2.3891702955    -2.5595370869    -6.7400392990
 F     -3.2090818440    -2.4438853398    -7.1340681382
          6
Energy: -17.578080975179887 Kcal/mole
 H     -2.2204267157    -2.8739013832    -4.7507967798
 F     -1.4624064708    -2.8255179614    -5.2645606875
 H     -4.0432923171    -2.6460031892    -5.5948293596
 F     -3.9842164349    -2.7844203602    -4.6902633162
 H     -2.3847506055    -2.5476220145    -6.7460020895
 F     -3.2093162983    -2.4445174068    -7.1337518259
          6
Energy: -17.576121315129967 Kcal/mole
 H     -2.2163036902    -2.8643965161    -4.7439761329
 F     -1.4626251878    -2.8260221726    -5.2649225070
 H     -4.0393300898    -2.6506703971    -5.5957799621
 F     -3.9844266219    -2.7841727756    -4.6902128889
 H     -2.3837395077    -2.5489068386    -6.7485060148
 F     -3.2093699347    -2.4444492499    -7.1336189985
          6
Energy: -17.578980944799696 Kcal/mole
 H     -2.2160348719    -2.8364015101    -4.7452042505
 F     -1.4579415246    -2.8071164077    -5.2603021631
 H     -4.0391068444    -2.6167316743    -5.5919886364
 F     -3.9766965883    -2.7431849303    -4.6858961830
 H     -2.3744499586    -2.5629419255    -6.7419067497
 F     -3.1954131400    -2.4668655942    -7.1389933819
          6
Energy: -17.57514233935285 Kcal/mole
 H     -2.2163877260    -2.8462189453    -4.7463817820
 F     -1.4579228065    -2.8065956155    -5.2602396978
 H     -4.0405746548    -2.6286916292    -5.5934710052
 F     -3.9766187244    -2.7425504823    -4.6858175468
 H     -2.3733518747    -2.5588547708    -6.7432141168
 F     -3.1954713908    -2.4670824083    -7.1389240291
          6
Energy: -17.577504399893485 Kcal/mole
 H     -2.2146865156    -2.8385543054    -4.7433523077
 F     -1.4580130518    -2.8070022069    -5.2604004044
 H     -4.0517521218    -2.6278736775    -5.5787714101
 F     -3.9774024881    -2.7629329175    -4.6748244350
 H     -2.3867682751    -2.5495126080    -6.7435322820
 F     -3.2112410406    -2.4566801771    -7.1340649935
          6
Energy: -17.57738490701155 Kcal/mole
 H     -2.2130546902    -2.8422600488    -4.7412117142
 F     -1.4580996164    -2.8068056258    -5.2605139579
 H     -4.0458380624    -2.6357220919    -5.5803727325
 F     -3.9777162153    -2.7625165772    -4.6747394886
 H     -2.3842254430    -2.5533781324    -6.7499030250
 F     -3.2113759320    -2.4564751200    -7.1337270403
          6
Energy: -17.578336458772583 Kcal/mole
 H     -2.2156825718    -2.8462457050    -4.7453446356
 F     -1.4579602133    -2.8065941959    -5.2602947160
 H     -4.0473345805    -2.6213462979    -5.5781230645
 F     -3.9776368285    -2.7632791799    -4.6748588283
 H     -2.3862157941    -2.5178375103    -6.7430041289
 F     -3.2130156200    -2.4179941809    -7.1268300756
          6
Energy: -17.578012425660233 Kcal/mole
 H     -2.2270314661    -2.8694997194    -4.7408871948
 F     -1.4675985037    -2.8390742877    -5.2539416449
 H     -4.0487325444    -2.6213154756    -5.5782118946
 F     -3.9818968598    -2.7747229007    -4.6766087928
 H     -2.3836570308    -2.5520469369    -6.7320788724
 F     -3.2050414179    -2.4271452935    -7.1201719904
          6
Energy: -17.57777313827927 Kcal/mole
 H     -2.2292876047    -2.8538929284    -4.7414638971
 F     -1.4631211749    -2.8119510925    -5.2435783106
 H     -4.0482317337    -2.6258261903    -5.5790041209
 F     -3.9819234266    -2.7744836177    -4.6765667671
 H     -2.3806037544    -2.5374059879    -6.7341382773
 F     -3.2052033871    -2.4279219620    -7.1200627437
          6
Energy: -17.57766429760619 Kcal/mole
 H     -2.2205226236    -2.8654030201    -4.7358619889
 F     -1.4646650600    -2.8108181373    -5.2521844019
 H     -4.0419772970    -2.6176681164    -5.5780576311
 F     -3.9822552100    -2.7749163846    -4.6766169762
 H     -2.3800235081    -2.5089297990    -6.7255913510
 F     -3.2024721804    -2.4011258243    -7.1165459320
          6
Energy: -17.57770894726559 Kcal/mole
 H     -2.2214349108    -2.8549571840    -4.7362054307
 F     -1.4646166653    -2.8113722647    -5.2521661831
 H     -4.0503389515    -2.6244049754    -5.5786113148
 F     -3.9818116436    -2.7745590098    -4.6765876045
 H     -2.3840670080    -2.5114657418    -6.7178947995
 F     -3.2022576821    -2.4009912984    -7.1169542163
          6
Energy: -17.579637568902285 Kcal/mole
 H     -2.2179575270    -2.8718907463    -4.7389620249
 F     -1.4600959211    -2.8223794770    -5.2528525002
 H     -4.0455886397    -2.6127607625    -5.5769399156
 F     -3.9820636366    -2.7751767084    -4.6766762684
 H     -2.3801911272    -2.5151700880    -6.7270146742
 F     -3.2024632886    -2.4007947914    -7.1164704280
          6
Energy: -17.576789692271802 Kcal/mole
 H     -2.2211773892    -2.8571785047    -4.7371844634
 F     -1.4593947663    -2.8152554777    -5.2459267315
 H     -4.0435373574    -2.6107269149    -5.5767128241
 F     -3.9821724524    -2.7752845993    -4.6766883151
 H     -2.3750947678    -2.5134308355    -6.7374504591
 F     -3.2027336387    -2.4008870547    -7.1159168337
          6
Energy: -17.576243020971788 Kcal/mole
 H     -2.2221759609    -2.8597828170    -4.7364560520
 F     -1.4653739776    -2.8221356290    -5.2529078380
 H     -4.0488869770    -2.6121968152    -5.5765988181
 F     -3.9818886675    -2.7752066245    -4.6766943628
 H     -2.3801852312    -2.5092865248    -6.7253497859
 F     -3.2024636014    -2.4011069008    -7.1165587465
          6
Energy: -17.578423405186243 Kcal/mole
 H     -2.2251654626    -2.8746444328    -4.7421879623
 F     -1.4652153914    -2.8213472547    -5.2526037734
 H     -4.0437635559    -2.6182118222    -5.5792606422
 F     -3.9821264060    -2.7817410581    -4.6790673014
 H     -2.3808654285    -2.5192082351    -6.7267996427
 F     -3.2024275185    -2.4005805770    -7.1164818349
          6
Energy: -17.57752720958348 Kcal/mole
 H     -2.2237694926    -2.8420352116    -4.7428432162
 F     -1.4656418642    -2.8046110227    -5.2573633121
 H     -4.0433832256    -2.6421419226    -5.5832893079
 F     -3.9821465817    -2.7804716216    -4.6788535900
 H     -2.3932710609    -2.5391728185    -6.7426361270
 F     -3.2224041349    -2.4506582028    -7.1242019907
          6
Energy: -17.57848343556543 Kcal/mole
 H     -2.2245613450    -2.8417082238    -4.7439882925
 F     -1.4655998583    -2.8046283686    -5.2573025685
 H     -4.0527011661    -2.6418525776    -5.5825632630
 F     -3.9816522865    -2.7804869707    -4.6788921050
 H     -2.3955449432    -2.5505491976    -6.7405259683
 F     -3.2222835107    -2.4500547121    -7.1243139298
          6
Energy: -17.577231412717254 Kcal/mole
 H     -2.2270551311    -2.8572969849    -4.7455179059
 F     -1.4643779147    -2.8101453137    -5.2524589118
 H     -4.0509569100    -2.6675156141    -5.5852435627
 F     -3.9816042259    -2.8144658996    -4.6827554360
 H     -2.3937049086    -2.5408968465    -6.7420980827
 F     -3.2223811203    -2.4505667471    -7.1242305327
          6
Energy: -17.575844449556257 Kcal/mole
 H     -2.2212796963    -2.8673916802    -4.7379675638
 F     -1.4646842881    -2.8096098134    -5.2528594400
 H     -4.0551309544    -2.6594856650    -5.5909240361
 F     -3.9891467627    -2.8163748917    -4.6898575252
 H     -2.3976858119    -2.5427424887    -6.7340180312
 F     -3.2221699425    -2.4504688400    -7.1246591608
          6
Energy: -17.578184422660627 Kcal/mole
 H     -2.2260593752    -2.8721528924    -4.7456318683
 F     -1.4644307372    -2.8093572421    -5.2524528663
 H     -4.0520401430    -2.6624636002    -5.5916577976
 F     -3.9893107231    -2.8162169192    -4.6898186009
 H     -2.3892282436    -2.5298684651    -6.7448822739
 F     -3.2167747554    -2.4383288544    -7.1291689774
          6
Energy: -17.578170488977435 Kcal/mole
 H     -2.2249952215    -2.8654660511    -4.7432576820
 F     -1.4644871881    -2.8097119636    -5.2525788114
 H     -4.0624387248    -2.6683062742    -5.5918475292
 F     -3.9887591024    -2.8159069788    -4.6898085360
 H     -2.3866323968    -2.5480006184    -6.7365342007
 F     -3.2085407968    -2.4567218117    -7.1327964391
          6
Energy: -17.578116175486684 Kcal/mole
 H     -2.2232884356    -2.8447131601    -4.7448403018
 F     -1.4644304640    -2.7926716726    -5.2570075230
 H     -4.0541422233    -2.6819841075    -5.5925600504
 F     -3.9872088058    -2.8192889915    -4.6883718584
 H     -2.3864828898    -2.5431597835    -6.7357611779
 F     -3.2085487278    -2.4569786068    -7.1328374462
          6
Energy: -17.579330173550318 Kcal/mole
 H     -2.2257566435    -2.8630313421    -4.7462654107
 F     -1.4640521444    -2.8064918706    -5.2537085546
 H     -4.0553617253    -2.6732469405    -5.5910964326
 F     -3.9871441140    -2.8197524781    -4.6884495000
 H     -2.3838952527    -2.5413518188    -6.7407724690
 F     -3.2086859959    -2.4570745151    -7.1325716088
          6
Energy: -17.578702354090467 Kcal/mole
 H     -2.2193721478    -2.8684371676    -4.7490510574
 F     -1.4593993295    -2.8144113398    -5.2593563831
 H     -4.0490531819    -2.6746199936    -5.5937579190
 F     -3.9857316835    -2.8275873509    -4.6918264496
 H     -2.3832443960    -2.5457021472    -6.7431117377
 F     -3.2087205224    -2.4568437403    -7.1324475160
          6
Energy: -17.579018692842567 Kcal/mole
 H     -2.2175590345    -2.8721141603    -4.7467629020
 F     -1.4594955110    -2.8142162838    -5.2594777644
 H     -4.0545650008    -2.6786943876    -5.5940344985
 F     -3.9854392943    -2.8273712137    -4.6918117777
 H     -2.3848192555    -2.5519433041    -6.7412577983
 F     -3.2086369797    -2.4565126613    -7.1325458632
          6
Energy: -17.578789261135228 Kcal/mole
 H     -2.2171564232    -2.8789302901    -4.7469852634
 F     -1.4595168686    -2.8138547039    -5.2594659687
 H     -4.0509725022    -2.6831897735    -5.5950306336
 F     -3.9856298680    -2.8271327439    -4.6917589350
 H     -2.3899560946    -2.5495566844    -6.7361001740
 F     -3.2139434259    -2.4636689951    -7.1292377869
          6
Energy: -17.57785435660088 Kcal/mole
 H     -2.2202094834    -2.8695540084    -4.7504202447
 F     -1.4593549108    -2.8143520940    -5.2592837508
 H     -4.0555861667    -2.6773203597    -5.5937280693
 F     -3.9853851238    -2.8274441027    -4.6918280330
 H     -2.3887773201    -2.5575524025    -6.7404301944
 F     -3.2140059572    -2.4632448407    -7.1290080893
          6
Energy: -17.578287846395938 Kcal/mole
 H     -2.2165536118    -2.8749893555    -4.7456119227
 F     -1.4595488463    -2.8140637614    -5.2595388212
 H     -4.0475634656    -2.6703376545    -5.5885085957
 F     -3.9839627742    -2.8254823230    -4.6869687552
 H     -2.3868367757    -2.5533824715    -6.7435814376
 F     -3.2141088986    -2.4634660459    -7.1288409231
          6
Energy: -17.579877730377575 Kcal/mole
 H     -2.2172987338    -2.8717415551    -4.7463363628
 F     -1.4595093193    -2.8142360497    -5.2595003913
 H     -4.0482404160    -2.6774167289    -5.5896487721
 F     -3.9839268635    -2.8251067944    -4.6869082715
 H     -2.3880055857    -2.5514725076    -6.7406445095
 F     -3.2140468959    -2.4635673651    -7.1289967204
          6
Energy: -17.57921464202701 Kcal/mole
 H     -2.2162008860    -2.8701889010    -4.7445481704
 F     -1.4595675576    -2.8143184144    -5.2595952508
 H     -4.0493485083    -2.6777667123    -5.5896871426
 F     -3.9832210075    -2.8193429627    -4.6860985642
 H     -2.3860882200    -2.5480790139    -6.7439904706
 F     -3.2141486077    -2.4637473821    -7.1288192249
          6
Energy: -17.57965023285516 Kcal/mole
 H     -2.2154934329    -2.8696847475    -4.7434561833
 F     -1.4596050863    -2.8143451586    -5.2596531782
 H     -4.0463656190    -2.6777212650    -5.5898931086
 F     -3.9833792429    -2.8193453736    -4.6860876382
 H     -2.3892206923    -2.5506276595    -6.7378820084
 F     -3.2139824373    -2.4636121823    -7.1291432647
          6
Energy: -17.57848424552924 Kcal/mole
 H     -2.2140560672    -2.8751526355    -4.7419724312
 F     -1.4596813353    -2.8140550997    -5.2597318878
 H     -4.0527542423    -2.6715030639    -5.5884259508
 F     -3.9830403411    -2.8196752348    -4.6861654675
 H     -2.3898534406    -2.5495599486    -6.7363161189
 F     -3.2139488715    -2.4636688219    -7.1292263315
          6
Energy: -17.579032480639285 Kcal/mole
 H     -2.2179451217    -2.8631925358    -4.7464082976
 F     -1.4594750299    -2.8146895554    -5.2594965754
 H     -4.0443133143    -2.6816461047    -5.5866137412
 F     -3.9761905745    -2.8196460479    -4.6826202081
 H     -2.3879200246    -2.5502878946    -6.7405602814
 F     -3.2140514347    -2.4636302061    -7.1290011885
          6
Energy: -17.578218356609455 Kcal/mole
 H     -2.2192273931    -2.8706874885    -4.7490789692
 F     -1.4594070084    -2.8142919655    -5.2593549024
 H     -4.0429116233    -2.6760535570    -5.5858459293
 F     -3.9762649310    -2.8199427196    -4.6826609387
 H     -2.3773514639    -2.5442870668    -6.7395986013
 F     -3.2035375908    -2.4542656442    -7.1271571481
          6
Energy: -17.57877610301722 Kcal/mole
 H     -2.2180870106    -2.8669106743    -4.7469840726
 F     -1.4594675030    -2.8144923167    -5.2594660318
 H     -4.0468249840    -2.6765798906    -5.5856318954
 F     -3.9760573363    -2.8199147988    -4.6826722927
 H     -2.3805744409    -2.5439596977    -6.7327302583
 F     -3.2033666193    -2.4542830104    -7.1275214978
          6
Energy: -17.57847589628318 Kcal/mole
 H     -2.2171797994    -2.8641562802    -4.7453707270
 F     -1.4595156285    -2.8146384310    -5.2595516161
 H     -4.0463734878    -2.6772845040    -5.5857787092
 F     -3.9760812871    -2.8198774207    -4.6826645046
 H     -2.3812278527    -2.5538779219    -6.7330605925
 F     -3.2055179881    -2.4638154026    -7.1246260599
          6
Energy: -17.579315736728347 Kcal/mole
 H     -2.2125350496    -2.8785474242    -4.7492497370
 F     -1.4549950376    -2.8284939671    -5.2635616868
 H     -4.0408353277    -2.6751086928    -5.5858455779
 F     -3.9763750737    -2.8199928425    -4.6826609574
 H     -2.3807014756    -2.5562430333    -6.7347242832
 F     -3.2055459112    -2.4636899389    -7.1245378050
          6
Energy: -17.57887489935075 Kcal/mole
 H     -2.2124106718    -2.8869720979    -4.7499596301
 F     -1.4550016356    -2.8280470576    -5.2635240286
 H     -4.0441220515    -2.6738176386    -5.5853965137
 F     -3.9762007206    -2.8200613299    -4.6826847792
 H     -2.3819594065    -2.5552846655    -6.7318495007
 F     -3.2054791809    -2.4637407781    -7.1246903055
          6
Energy: -17.579409919123634 Kcal/mole
 H     -2.2121839002    -2.8771984922    -4.7486036590
 F     -1.4550136653    -2.8285655248    -5.2635959598
 H     -4.0445166935    -2.6781621299    -5.5860592929
 F     -3.9761797857    -2.8198308647    -4.6826496203
 H     -2.3815814840    -2.5596581613    -6.7336912794
 F     -3.2054992288    -2.4635087743    -7.1245926034
          6
Energy: -17.57977248903063 Kcal/mole
 H     -2.2109573433    -2.8885794840    -4.7427928293
 F     -1.4549231416    -2.8351103943    -5.2589733619
 H     -4.0411810589    -2.6765265365    -5.5860470809
 F     -3.9763567334    -2.8199176291    -4.6826502681
 H     -2.3804958000    -2.5582761702    -6.7356490137
 F     -3.2055568218    -2.4635820857    -7.1244887501
          6
Energy: -17.57972773433005 Kcal/mole
 H     -2.2133651020    -2.8834546580    -4.7458306580
 F     -1.4547954155    -2.8353822544    -5.2588122121
 H     -4.0403194096    -2.6694588455    -5.5856456615
 F     -3.9759238245    -2.8161078891    -4.6827413107
 H     -2.3784838747    -2.5612257861    -6.7406879883
 F     -3.2056635498    -2.4634256154    -7.1242214442
          6
Energy: -17.58013650327422 Kcal/mole
 H     -2.2131733712    -2.8840164335    -4.7456001979
 F     -1.4548055864    -2.8353524535    -5.2588244375
 H     -4.0444906920    -2.6708378242    -5.5855608767
 F     -3.9757025476    -2.8160347374    -4.6827458083
 H     -2.3817714037    -2.5606979338    -6.7335482619
 F     -3.2054891540    -2.4634536167    -7.1246001902
          6
Energy: -17.579544696732228 Kcal/mole
 H     -2.2095245706    -2.8847473663    -4.7403206435
 F     -1.4549991469    -2.8353136793    -5.2591045056
 H     -4.0423870405    -2.6721886912    -5.5859346892
 F     -3.9758141415    -2.8159630771    -4.6827259785
 H     -2.3814006373    -2.5587569681    -6.7338519645
 F     -3.2055088223    -2.4635565805    -7.1245840795
          6
Energy: -17.58023645788029 Kcal/mole
 H     -2.2118790873    -2.8855497573    -4.7438403920
 F     -1.4548742452    -2.8352711143    -5.2589177911
 H     -4.0418540540    -2.6708943013    -5.5857667720
 F     -3.9758424152    -2.8160317415    -4.6827348861
 H     -2.3810158111    -2.5601929696    -6.7350183040
 F     -3.2055292364    -2.4634804039    -7.1245222078
          6
Energy: -17.580106248112713 Kcal/mole
 H     -2.2138531697    -2.8823195799    -4.7464479744
 F     -1.4547695247    -2.8354424677    -5.2587794649
 H     -4.0436310767    -2.6694140920    -5.5853957699
 F     -3.9757481482    -2.8161102631    -4.6827545669
 H     -2.3814624049    -2.5630156294    -6.7347849119
 F     -3.2055055457    -2.4633306683    -7.1245345888
          6
Energy: -17.580135114814823 Kcal/mole
 H     -2.2122868730    -2.8839991591    -4.7442911869
 F     -1.4548526131    -2.8353533699    -5.2588938775
 H     -4.0410447931    -2.6695631075    -5.5856105470
 F     -3.9758853446    -2.8161023582    -4.6827431735
 H     -2.3800082735    -2.5630190972    -6.7378760162
 F     -3.2055826840    -2.4633304844    -7.1243706128
          6
Energy: -17.580260601604664 Kcal/mole
 H     -2.2121777783    -2.8825194454    -4.7439930773
 F     -1.4548584003    -2.8354318653    -5.2589096915
 H     -4.0428072015    -2.6705003778    -5.5856331540
 F     -3.9757918529    -2.8160526382    -4.6827419742
 H     -2.3816083423    -2.5614883253    -6.7340895578
 F     -3.2054978040    -2.4634116883    -7.1245714757
          6
Energy: -17.58017088490334 Kcal/mole
 H     -2.2117369690    -2.8834923961    -4.7434352105
 F     -1.4548817842    -2.8353802525    -5.2589392850
 H     -4.0425036116    -2.6696431510    -5.5855170064
 F     -3.9758079577    -2.8160981121    -4.6827481356
 H     -2.3820310772    -2.5629593681    -6.7335706180
 F     -3.2054753789    -2.4633336529    -7.1245990042
          6
Energy: -17.580267060315748 Kcal/mole
 H     -2.2130608261    -2.8839718434    -4.7454297121
 F     -1.4548115567    -2.8353548189    -5.2588334813
 H     -4.0410419127    -2.6702634803    -5.5857241348
 F     -3.9758854974    -2.8160652051    -4.6827371479
 H     -2.3809736775    -2.5603783849    -6.7351536053
 F     -3.2055314715    -2.4634705681    -7.1245150304
          6
Energy: -17.580327265203152 Kcal/mole
 H     -2.2126240191    -2.8831777059    -4.7447107603
 F     -1.4548347283    -2.8353969461    -5.2588716201
 H     -4.0417529966    -2.6700277483    -5.5856344308
 F     -3.9758477760    -2.8160777101    -4.6827419065
 H     -2.3808463108    -2.5605943237    -6.7354773036
 F     -3.2055382280    -2.4634591130    -7.1244978590
          6
Energy: -17.580301204833347 Kcal/mole
 H     -2.2125255103    -2.8828992261    -4.7445398146
 F     -1.4548399539    -2.8354117188    -5.2588806883
 H     -4.0411578748    -2.6703660133    -5.5857323090
 F     -3.9758793459    -2.8160597659    -4.6827367143
 H     -2.3808118259    -2.5601726146    -6.7354453551
 F     -3.2055400574    -2.4634814837    -7.1244995538
          6
Energy: -17.5801908701697 Kcal/mole
 H     -2.2126350831    -2.8821964211    -4.7446368682
 F     -1.4548341414    -2.8354490010    -5.2588755399
 H     -4.0414568370    -2.6712616108    -5.5858546683
 F     -3.9758634866    -2.8160122565    -4.6827302234
 H     -2.3798867038    -2.5615143032    -6.7377506906
 F     -3.2055891330    -2.4634103102    -7.1243772610
          6
Energy: -17.58030137944752 Kcal/mole
 H     -2.2128903580    -2.8827480065    -4.7450637580
 F     -1.4548205996    -2.8354197407    -5.2588528944
 H     -4.0430691167    -2.6701459500    -5.5855564610
 F     -3.9757779589    -2.8160714398    -4.6827460426
 H     -2.3809109443    -2.5614049479    -6.7355435930
 F     -3.2055347994    -2.4634161113    -7.1244943425
          6
Energy: -17.580339504376468 Kcal/mole
 H     -2.2125577356    -2.8835583556    -4.7446485997
 F     -1.4548382445    -2.8353767535    -5.2588749175
 H     -4.0418966548    -2.6702151883    -5.5856542319
 F     -3.9758401553    -2.8160677668    -4.6827408561
 H     -2.3809146201    -2.5610970516    -6.7354583693
 F     -3.2055346044    -2.4634324445    -7.1244988634
