          6
Energy: -17.447002132896728 Kcal/mole
 H     -3.6522824526     6.9095162532     2.7860297255
 F     -4.4000367260     7.3702811557     3.0495600868
 H     -2.3306653891     6.2960439505     4.1321595771
 F     -2.1265538284     6.0920330413     3.2617533388
 H     -3.9725812987     7.2715881585     4.7753322029
 F     -3.3534649835     6.9671911473     5.3794236263
          6
Energy: -17.110074706190403 Kcal/mole
 H     -3.2145101118     3.2282794822     7.1510844695
 F     -4.0608935512     3.5413534035     7.3138996815
 H     -1.9543570723     3.8988878877     5.6512390691
 F     -1.6801877164     3.1850354634     6.1573367677
 H     -3.8841363383     4.7968334806     6.0783915994
 F     -3.3745783220     5.0804841189     5.3707321168
          6
Energy: -16.989696820664506 Kcal/mole
 H      0.8062000355     6.2084762133     4.5859858135
 F     -0.0014879277     5.7763987777     4.5431110681
 H      2.5625409743     5.1533851217     3.9821908106
 F      2.5777927149     6.0159165809     4.2931504001
 H      0.5771607928     4.3934060949     3.5626786302
 F      1.3135427562     3.9274524469     3.2771654049
          6
Energy: -17.007890931541453 Kcal/mole
 H      3.4946586347     4.9199850919     2.7878242741
 F      2.9585870571     4.2444838644     2.4760321072
 H      2.5218181700     5.9844764640     4.2540110505
 F      3.3453063388     6.3181055276     4.0271897911
 H      1.5040847260     4.4565562293     3.5895359338
 F      1.1613322603     5.0540588871     4.1948460371
          6
Energy: -17.344784775600488 Kcal/mole
 H      2.6223208972     6.1228707136     4.1364821983
 F      2.1939296882     5.3282817342     4.2977221622
 H      4.6577570221     6.1900019644     4.6700834215
 F      4.2716416262     6.9405115607     4.3115597166
 H      3.6588815589     4.3903777019     4.9519965610
 F      4.5464568729     4.4838708120     5.1626101890
          6
Energy: -17.20047214175122 Kcal/mole
 H      5.8342883344     2.6874327465     3.0233882366
 F      5.3871955777     2.8453805490     3.8082764825
 H      7.4419740499     3.6800520364     2.3382371157
 F      7.0574557359     2.9774720271     1.8916769331
 H      6.6871922844     4.1049810360     4.1898137059
 F      7.4521338200     4.5342129918     3.9223938577
          6
Energy: -17.176093806218773 Kcal/mole
 H      4.1065513779     6.1703358204     1.9139132590
 F      4.5781080463     6.2717659181     2.6938076388
 H      2.1189691403     5.4101667556     1.9937884610
 F      2.4960077872     5.5614635547     1.1716934924
 H      3.1715735106     5.7739509893     3.7967949115
 F      2.3374128227     5.3930837769     3.7990561615
          6
Energy: -17.335229457644743 Kcal/mole
 H      2.4874916727     5.2594385177     5.1067328370
 F      3.1689020564     4.6864075730     4.8871777750
 H      1.1790298572     5.8239463807     3.6201263531
 F      0.9806706976     6.0120578347     4.4954301430
 H      2.8275834872     4.6819239518     3.1367330301
 F      2.3008279088     5.0360762081     2.4749220753
          6
Energy: -17.038233559612195 Kcal/mole
 H      3.8759308965     6.5694552754     4.9684879838
 F      4.2835543330     7.0662468005     4.3143241553
 H      1.7260920341     6.3137592815     4.5794303774
 F      2.0995913540     5.9311811592     5.3244278528
 H      2.8867614056     7.3774445392     3.3500113021
 F      2.0372591994     7.2186211183     3.0434006002
          6
Energy: -17.190981605111972 Kcal/mole
 H      1.4295151470     6.2921220460     4.6751769272
 F      1.0782122594     5.6965377351     5.2774680609
 H      1.5729754522     5.7783602554     2.5931877088
 F      1.8729886485     6.5928159017     2.8890645115
 H      0.7319914268     4.3932063263     4.0177536216
 F      0.8738702723     4.1659191275     3.1407701996
          6
Energy: -17.11743099393101 Kcal/mole
 H     -2.3960993203     5.8999505815     5.3648779115
 F     -2.7802014045     5.4759319320     4.6482449693
 H     -1.2597421522     4.7306233114     6.5840564688
 F     -1.3980407321     5.6023651841     6.8327100637
 H     -1.8929156831     4.0090800368     4.8286214173
 F     -1.3979814796     3.4999951540     5.4089331578
          6
Energy: -17.08040901434765 Kcal/mole
 H     -0.0240025900     6.1325485348     2.8738992142
 F      0.8302120695     6.1143255417     2.5409213802
 H     -0.6875411390     5.2365531544     4.5616172349
 F     -1.1938682656     5.8267824614     4.0756633213
 H      1.2668525837     4.9992383271     3.8603757609
 F      1.0809697316     4.6140049378     4.6715057142
          6
Energy: -17.131276464302687 Kcal/mole
 H     -2.1820444705     5.5395355804     4.8325824732
 F     -2.6884093547     5.8444830776     4.1315185475
 H     -0.5269319510     6.2165722132     5.3850553822
 F     -0.9195011466     5.5906061225     5.9281436623
 H     -1.4481077511     6.9800944881     3.7512751493
 F     -0.6163981074     7.2929056424     3.9777641122
          6
Energy: -17.002825739910577 Kcal/mole
 H     -5.3920078392     7.2289331614     2.8296406245
 F     -4.8629924720     7.4192704072     2.1052074156
 H     -4.5308470957     6.8141029014     4.5310065007
 F     -5.4377094807     6.7102328523     4.4432532816
 H     -3.3111217333     7.3435478528     3.0027443302
 F     -2.9658887726     7.3284231209     3.8521408485
          6
Energy: -16.81704962152037 Kcal/mole
 H     -4.1237654739     5.7738505273     4.3804703444
 F     -3.6510967085     5.6519598287     5.1567537307
 H     -2.9800806134     6.9357703084     2.9325010469
 F     -3.7809920199     6.5539943895     2.7008179300
 H     -2.0879916404     6.6394476767     4.8248005741
 F     -1.6992316637     7.0944016669     4.1299829381
          6
Energy: -17.372366021157063 Kcal/mole
 H     -1.9139850338     6.2500973253     6.7633312604
 F     -1.3125704848     5.5591779431     6.8059921039
 H     -3.5343937962     6.1452449741     5.4540098026
 F     -3.3603757680     6.9188916960     5.9145285053
 H     -2.2461645929     4.6105118938     5.6357817662
 F     -3.0127419351     4.4799351094     5.1497798301
          6
Energy: -17.46067517684736 Kcal/mole
 H     -2.5511132025     6.2406896392     6.3886628876
 F     -2.0872515998     5.4529610530     6.4608091838
 H     -3.5800386947     6.7875720909     4.7622449131
 F     -3.6113506409     7.2890633738     5.5293270830
 H     -2.5193446817     5.0169232233     4.7791033821
 F     -3.0037911713     5.2581512481     4.0388266509
          6
Energy: -17.475834181442224 Kcal/mole
 H     -1.1557658643     3.2597933978     4.4906911654
 F     -1.3458714424     3.1023099566     3.6075446119
 H     -2.5060914260     4.1563753642     5.6872302006
 F     -1.7242823264     3.8768815720     6.0765202619
 H     -2.9094886686     3.8111395698     3.7655664417
 F     -3.5393180323     4.2141622929     4.2963928326
          6
Energy: -17.177789779162765 Kcal/mole
 H     -1.4183792433     3.8769147145     5.7868220613
 F     -1.0162390296     4.5066781794     6.3183954116
 H     -3.0490727239     4.2055331227     4.8010915304
 F     -2.6393769643     3.3950801406     4.6737952295
 H     -2.3913741827     5.5909738734     5.9689959601
 F     -3.1831267672     5.7687668107     5.5419052012
          6
Energy: -17.431050103406506 Kcal/mole
 H     -5.1405865468     4.2182174963     5.3529245976
 F     -5.9609940737     3.8143965248     5.2840107904
 H     -5.1275254071     6.2841141370     4.9101264853
 F     -4.3329496661     5.8659764227     5.0964038151
 H     -6.8187634510     5.2577290227     4.8230586974
 F     -6.8740168631     6.1579339268     4.6573264102
          6
Energy: -17.34907932218681 Kcal/mole
 H     -5.9530616913     4.2170249775     6.5692038054
 F     -6.3692320145     5.0053677931     6.3542459792
 H     -4.0519524493     4.0126841656     7.2666641938
 F     -4.5923557417     3.2980583408     7.0713101256
 H     -4.9892040084     5.9215600367     6.8517530785
 F     -4.1345657167     5.9139901907     7.1840557836
          6
Energy: -17.344817937473465 Kcal/mole
 H     -4.8778877000     3.4626852917     6.6823631456
 F     -4.2488158833     4.1260979799     6.7533649390
 H     -5.2018070193     2.5677218790     4.9216852341
 F     -5.7127140008     2.3456373404     5.6500680414
 H     -3.7547735704     3.8772460262     5.1250552237
 F     -3.8682009942     3.4382093124     4.3280169664
          6
Energy: -17.356933952642862 Kcal/mole
 H     -5.0305899916     3.5763215749     4.7906452857
 F     -4.4120522300     2.9073509906     4.8944643346
 H     -4.7810751996     5.4639128831     5.6798765866
 F     -5.5023654820     5.2849241421     5.1426686574
 H     -3.3331723907     3.8904157129     5.8296797295
 F     -3.1558931664     4.6768992992     6.2666060907
          6
Energy: -17.382397991803884 Kcal/mole
 H     -4.5322460170     4.3978366377     6.2424366546
 F     -4.0818691600     4.5430499093     7.0279064455
 H     -3.7515365643     5.2811336820     4.4921284566
 F     -4.5511549122     4.8336387970     4.4568038793
 H     -2.8814947898     5.5322920666     6.2651780664
 F     -2.5149545667     5.9142670943     5.5164242062
          6
Energy: -16.695368144026588 Kcal/mole
 H     -3.9266952446     2.7683810654     6.5710645943
 F     -4.2909300977     3.5613652150     6.2892878915
 H     -2.0370097007     2.8458286399     7.1848423863
 F     -2.4598217930     2.0329046186     7.1491566726
 H     -2.8537259101     4.7112972446     6.5799121350
 F     -1.9544455764     4.6464250379     6.7471708514
          6
Energy: -17.384903317863973 Kcal/mole
 H     -3.3425293407     2.1960583187     6.5416811603
 F     -4.1101037502     2.2025925685     6.0400081298
 H     -2.5828566269     3.9323171997     7.3404788092
 F     -2.1606232272     3.1232697566     7.4302016668
 H     -4.3354067795     3.9344949907     6.2987312145
 F     -4.0448083318     4.6929266400     6.7244341339
          6
Energy: -17.51996301390028 Kcal/mole
 H     -3.2851507255     4.0519662258     4.6336263287
 F     -3.3155360656     3.4650975534     3.9296725714
 H     -4.9592497278     4.4767481253     5.7384656465
 F     -4.1601317878     4.8705167023     5.9558266955
 H     -5.0360603846     3.0835344138     4.1946869792
 F     -5.7881285596     3.2854182309     4.6789651890
          6
Energy: -17.133049222317027 Kcal/mole
 H     -3.3070964347     4.2018865869     3.0611388678
 F     -3.2097546976     4.6651705354     2.2757844451
 H     -5.1539340503     4.3227193835     4.0617576235
 F     -4.4909578036     3.7414315251     4.3136622127
 H     -4.7853091507     5.5161466495     2.5412476718
 F     -5.5679827187     5.6384920220     3.0031380222
          6
Energy: -17.434757985717283 Kcal/mole
 H     -5.6655752267     5.5138739056     0.4064135010
 F     -4.7488655910     5.5341130307     0.3953310093
 H     -6.7477927922     3.7682457497     0.5410907831
 F     -7.1659002256     4.5820236749     0.4791177037
 H     -4.6530475081     3.7174124199     0.5547777567
 F     -5.1698003478     2.9601266802     0.5741119543
          6
Energy: -17.304142882070607 Kcal/mole
 H     -3.9924373782     5.5609681185     1.5120809949
 F     -3.3164964786     5.3588676485     2.0978696090
 H     -5.6822401134     4.4477129776     1.2118676297
 F     -5.5092180500     5.1981254743     0.7140388938
 H     -4.1942958878     3.8469930005     2.5153255557
 F     -4.9620681289     3.3460450233     2.4937406094
          6
Energy: -17.2911623492015 Kcal/mole
 H     -3.6375739339     5.0508475073     3.1046288956
 F     -3.3186954082     4.3704269896     3.6302080095
 H     -5.1967500053     4.7327893375     1.8704999736
 F     -4.7631995138     5.5408128900     1.8659272473
 H     -4.7578411322     3.2436845158     3.1852503350
 F     -5.4966669172     3.1871480081     2.6450382630
          6
Energy: -17.36837452656465 Kcal/mole
 H     -4.6201261175     3.2590830224     1.3470646285
 F     -4.6511610360     2.5535063163     0.7621822936
 H     -4.9230768513     2.9735234690     3.2537625982
 F     -4.7433017605     3.8390028202     3.0098047959
 H     -4.9316483654     1.3517026718     2.0684535112
 F     -5.1302747330     1.2683411188     2.9597937480
          6
Energy: -17.389725972158942 Kcal/mole
 H     -5.3887869834     3.9605727763     2.4124574491
 F     -5.0323131802     3.8834642476     1.5711075204
 H     -6.2079026924     2.2248609323     3.1895299468
 F     -6.2923415762     3.0095091612     3.6565269830
 H     -5.2566024155     2.2119518997     1.4394382196
 F     -5.5960123386     1.4200552361     1.7534279937
          6
Energy: -17.412233869372585 Kcal/mole
 H     -4.9110464675     1.5359135966     4.2195745189
 F     -5.7110930582     1.5517106324     3.7717297843
 H     -4.0677157417    -0.2690019427     4.7371209053
 F     -3.6185505507     0.4975965333     4.9639829954
 H     -5.7537803311    -0.2676394967     3.6015728820
 F     -5.3531376322    -1.0458359554     3.8750407949
          6
Energy: -17.386427302066465 Kcal/mole
 H     -2.3400643099     1.4997367974     4.6001435043
 F     -1.6577049841     1.0291493251     4.2079417943
 H     -4.1755774530     1.2409167394     3.7435002257
 F     -4.1079779287     1.7608882603     4.4957959931
 H     -2.6507728137     0.3000095439     2.8539071689
 F     -3.5034551386     0.2611942975     2.5187725253
          6
Energy: -17.46108253827964 Kcal/mole
 H     -4.2768086936    -0.4812397933     5.2210792879
 F     -3.9745051012    -1.2025398639     4.7423019429
 H     -5.1151677462     1.1672697449     4.1762586256
 F     -5.0784385846     1.1712945090     5.0925139230
 H     -4.4446421672    -0.4849981826     3.1698320962
 F     -4.7980838773     0.2244963446     2.7087621739
          6
Energy: -17.372339287887485 Kcal/mole
 H     -4.3882686283    -0.9794870529     4.8000360717
 F     -3.5838788729    -0.5508573692     4.6994243643
 H     -6.1219283313    -0.0294494987     4.8626930868
 F     -6.0699609744    -0.9319640674     5.0164976610
 H     -4.3593482322     1.0031643299     4.5563507082
 F     -5.1296985740     1.4993134107     4.5204976674
          6
Energy: -17.431158686305935 Kcal/mole
 H     -3.9527581565    -0.6763926898     4.0245002055
 F     -3.5882192484    -0.5439650465     4.8554414211
 H     -3.6162747696     0.5774753918     2.4110902660
 F     -4.1207533587    -0.1842039071     2.3321282576
 H     -2.7520694538     0.8709218063     4.3159132733
 F     -2.5313719640     1.4612700635     3.6498272780
          6
Energy: -17.473442394478468 Kcal/mole
 H     -4.2706326364    -0.6712559640     4.3148487434
 F     -3.5459383496    -1.1607282532     4.5907546491
 H     -4.0682166973     0.6717477738     2.8590439618
 F     -4.8844887054     0.5851938987     3.2678194938
 H     -2.4699592635    -0.3928299930     3.3417674903
 F     -2.4369062275     0.2455544116     2.6843012563
          6
Energy: -17.32588959666282 Kcal/mole
 H     -3.9205016499    -0.5407575610     3.1884050475
 F     -3.4441869327    -1.0812905921     3.7557121357
 H     -3.8565905490     1.4778860052     3.3558237306
 F     -4.2845520187     1.1127801208     2.6316444202
 H     -2.7824916043     0.3545825385     4.5657850628
 F     -2.7925094713     1.2606721250     4.7064630768
          6
Energy: -17.48463913043861 Kcal/mole
 H     -3.4031204797     0.7125379773     2.3315110752
 F     -2.6453509964     0.7001434112     2.8477675859
 H     -4.2312683750     2.5456930225     1.8932706351
 F     -4.6763899071     1.8042927508     1.5881780938
 H     -2.5385494464     2.4447611189     2.9588327697
 F     -2.8664935691     3.2646881356     2.7117268416
          6
Energy: -17.46160482457077 Kcal/mole
 H     -3.7923935612     0.7812990552     1.0745925799
 F     -3.0639736282     0.5786498665     1.5934631875
 H     -4.1527843795     2.7843799577     0.5438261973
 F     -4.7209308507     2.1221093624     0.2618754110
 H     -2.4989652645     2.3124756601     1.6564645803
 F     -2.6821545557     3.1797973185     1.4217651463
          6
Energy: -17.395935016749547 Kcal/mole
 H     -3.0562763087     0.3836386604     1.2243899272
 F     -2.4114814372     0.2507439336     1.8627217886
 H     -4.6420060437     1.7004944188     1.7081878758
 F     -4.6033367733     1.3334102727     0.8687577613
 H     -3.2385568336     1.2639917384     3.0209420940
 F     -3.8921916155     1.8578926157     3.2677868221
          6
Energy: -17.431459279457613 Kcal/mole
 H     -2.7512274946     0.9597167011     1.0477351251
 F     -2.7227589944     0.4496695828     1.8092667933
 H     -2.3977231585     3.0236011859     1.1311175918
 F     -2.5843475997     2.6067217264     0.3359623653
 H     -2.3817691128     1.8291085367     2.8693810723
 F     -2.2622271657     2.7375292134     2.9064026480
          6
Energy: -17.46366864385243 Kcal/mole
 H     -3.1671314035     0.6642096465     1.2375674138
 F     -2.2856634506     0.4548323819     1.0959185199
 H     -3.8925410973     2.4618459283     0.9304916748
 F     -4.4731469375     1.7812622419     1.1319655047
 H     -1.9278495776     2.1336120418     0.6659478043
 F     -2.2487527320     2.9886726991     0.5835983186
          6
Energy: -17.486590451758275 Kcal/mole
 H     -2.8268616331     0.3355937291     0.4070911873
 F     -2.1008717369     0.4130909211    -0.1477257698
 H     -3.7722836454     1.9177652618     1.1784790530
 F     -4.0526539303     1.0714201273     1.3929118318
 H     -2.1891115689     2.2374644346    -0.1240382740
 F     -2.6296181752     2.9573741370     0.2345324305
          6
Energy: -17.44974959538922 Kcal/mole
 H     -2.8096756612     0.9526687813     1.7417535902
 F     -1.9600957996     0.9912653634     1.3988055437
 H     -4.2256053122     2.2124459945     1.0217318729
 F     -4.4151774285     1.6315234431     1.7054572578
 H     -2.3564764301     2.1900850387     0.1961759756
 F     -2.9946288317     2.7173728785    -0.1983085568
          6
Energy: -17.455147960152033 Kcal/mole
 H     -3.3744783023     0.1371900418     1.0545893936
 F     -2.4956616894     0.0653228165     0.8027849797
 H     -4.7253607874     1.2349171561    -0.0330809935
 F     -4.9928942658     0.8347760667     0.7474329055
 H     -2.7795208705     1.1107268390    -0.5942216306
 F     -3.3407296995     1.5900785054    -1.1384234592
          6
Energy: -17.521340643232577 Kcal/mole
 H     -3.3131785997     1.0739385559     1.4458212788
 F     -2.4887379481     1.4494462066     1.3037627828
 H     -4.3559609618     0.4058006442    -0.1555342245
 F     -4.7364254336     0.2843177884     0.6699218321
 H     -2.5937821178     1.2447237377    -0.4270988217
 F     -3.0598132037     0.9558909282    -1.1621359876
          6
Energy: -17.435681244700504 Kcal/mole
 H     -3.8532734035     1.2795240199     1.0835015757
 F     -3.7583302711     2.1850575993     0.9744890159
 H     -3.8069533920     0.0631442052    -0.5861969501
 F     -3.8479582535    -0.3507991313     0.2310291603
 H     -3.6277964731     2.0481947081    -0.7989304620
 F     -3.6027355381     1.5050313480    -1.5373304307
          6
Energy: -17.493406174122185 Kcal/mole
 H     -4.5733261892     1.5016017907     1.1707023594
 F     -4.3196593565     2.3659506930     0.9991124032
 H     -4.6389739892     0.1368307808    -0.3435893589
 F     -4.8710145962    -0.1585386299     0.4929529700
 H     -4.0313615122     2.0596296146    -0.7158234891
 F     -4.0805014067     1.4387402695    -1.3888544631
          6
Energy: -17.54742974180209 Kcal/mole
 H     -4.9785222974     1.1493467614     1.0523525190
 F     -5.0551301707     2.0532670041     0.9183807736
 H     -4.2107166844    -0.0323941637    -0.4004587826
 F     -4.5151681609    -0.4212370360     0.3721986571
 H     -4.2866618795     1.9717722672    -0.6632411292
 F     -3.9345203589     1.4308314106    -1.3145999697
          6
Energy: -17.49084750967262 Kcal/mole
 H     -5.5319355089     1.1571056100     0.7393246020
 F     -5.4892474754     2.0134733218     0.4142075860
 H     -4.4719273928    -0.3216187070    -0.2753518099
 F     -4.9043862170    -0.5462902904     0.5014306854
 H     -4.5054303773     1.5484605116    -0.9452412181
 F     -4.0321867303     0.9202133268    -1.4166592125
          6
Energy: -17.54488406386787 Kcal/mole
 H     -5.6610994968     0.9995326551     0.3612599894
 F     -5.3783096010     1.8698086717     0.3017744462
 H     -4.7263433015    -0.4752830722    -0.6257791706
 F     -5.4322001941    -0.6621566363    -0.0710420093
 H     -4.0623210685     1.4472260721    -0.7919640549
 F     -3.6471374167     0.7864754436    -1.2735449330
          6
Energy: -17.526416988931885 Kcal/mole
 H     -5.5264917852     0.7822819328     0.3682247501
 F     -5.4540592523     1.6879583199     0.2441569869
 H     -4.6548889393    -0.4497507540    -1.0724516760
 F     -5.0897788318    -0.8335402127    -0.3621943756
 H     -4.5346740056     1.5432308549    -1.2678032027
 F     -4.1312827107     1.0008920132    -1.8875071998
          6
Energy: -17.536007481127683 Kcal/mole
 H     -5.6568198398     0.7458797156     0.1556471762
 F     -5.4955984772     1.6484855509     0.1697673151
 H     -5.1408154807    -0.3820296457    -1.3830832722
 F     -5.5599772170    -0.7640404417    -0.6624861652
 H     -4.7508212733     1.5910850368    -1.4433025251
 F     -4.4988577117     1.0477882036    -2.1377317257
          6
Energy: -17.56706745498309 Kcal/mole
 H     -5.6009266413     0.7744672430     0.2352619421
 F     -5.5469717222     1.6881899530     0.1796860856
 H     -4.8787693612    -0.3772471886    -1.2607399198
 F     -5.2467055704    -0.7785474835    -0.5228578023
 H     -4.7769212645     1.6303104047    -1.4056078852
 F     -4.4582948223     1.1013348835    -2.0835098606
          6
Energy: -17.55965211327168 Kcal/mole
 H     -5.5627437175     0.7978395347     0.2006827798
 F     -5.6441352074     1.7053521319     0.0973130007
 H     -4.7288886852    -0.3651914986    -1.2586730838
 F     -5.0353219409    -0.7632199922    -0.4914958043
 H     -4.9083231342     1.6465131374    -1.5169717917
 F     -4.5352756166     1.1295235675    -2.1760972230
          6
Energy: -17.570479901404212 Kcal/mole
 H     -5.5723569326     0.7642536595     0.2013841462
 F     -5.6407566608     1.6744755242     0.1135967081
 H     -4.7611663921    -0.3625385990    -1.2565147298
 F     -5.0607368192    -0.7651907809    -0.4890397923
 H     -4.9096403864     1.6315728862    -1.4866025351
 F     -4.5506207021     1.1363306058    -2.1697781713
          6
Energy: -17.57997345266972 Kcal/mole
 H     -5.5656238030     0.7658498467     0.2117556889
 F     -5.6411138377     1.6743908502     0.1130465217
 H     -4.7576207474    -0.3684157570    -1.2618537237
 F     -5.0487878657    -0.7717470710    -0.4915066847
 H     -4.9171629430     1.6396465930    -1.4965790455
 F     -4.5502216478     1.1359023143    -2.1692489405
