          6
Energy: -17.580049725738093 Kcal/mole
 H     -2.2809120846    -2.6300871379    -4.5878316607
 F     -1.5340221915    -2.7515967477    -5.1057890936
 H     -4.1271124700    -2.6980531265    -5.4122860078
 F     -4.0407662777    -2.5440561238    -4.5124425446
 H     -2.4951682409    -2.9694104750    -6.5740284185
 F     -3.3294881893    -3.0013091047    -6.9532139946
