          6
Energy: -17.58009996276354 Kcal/mole
 H     -1.6201837538    -2.9282976358    -6.7173867040
 F     -0.7838458221    -3.2905399239    -6.8184232754
 H     -3.1502314395    -4.0480148230    -6.0056687481
 F     -3.2990726977    -3.1708744886    -6.2278401091
 H     -1.3073858955    -4.8644793368    -6.2229181748
 F     -1.9924656783    -5.3813189904    -5.8997596014
