          6
Energy: -17.580223915304373 Kcal/mole
 H     -1.5003543901    -3.5737861913    -4.8945731793
 F     -1.1585699387    -3.3730364052    -5.7214781993
 H     -3.4544156032    -4.0621205536    -4.6763426985
 F     -2.9096725758    -4.0427188083    -3.9389367002
 H     -2.7163355707    -3.6212110747    -6.5125323337
 F     -3.6022325747    -3.8408581005    -6.4240411909
