          6
Energy: -17.579886463550224 Kcal/mole
 H     -1.9723093327     3.9094733750     2.5145319833
 F     -1.7592905896     3.3381910873     1.8295877791
 H     -3.7221225575     3.7057041943     3.5161318264
 F     -3.1437195904     4.3762035664     3.7543955451
 H     -3.2613391698     2.4390569442     2.0071906618
 F     -4.0562690296     2.3377122314     2.4529537907
