          6
Energy: -17.580371819161883 Kcal/mole
 H     -2.2107407531    -2.8507292185    -4.7345351404
 F     -1.4482028888    -2.8171634230    -5.2427657404
 H     -4.0340321664    -2.7117839531    -5.6028118022
 F     -3.9746767811    -2.8090626526    -4.6929201642
 H     -2.3622387185    -2.6356085087    -6.7416355202
 F     -3.1841322475    -2.5718970975    -7.1432832304
