          6
Energy: -17.580346437661262 Kcal/mole
 H     -2.2187409634    -2.9267017196    -4.7739886013
 F     -1.4798679394    -3.0151507457    -5.3098359901
 H     -4.0237244533    -2.4838553181    -5.5731868856
 F     -3.9478089437    -2.5965489688    -4.6663098397
 H     -2.4054047107    -2.6745347360    -6.7737323602
 F     -3.2198597521    -2.4735484197    -7.1440788009
