          6
Energy: -17.556445559683482 Kcal/mole
 H     -1.8459360013    -3.1721720350    -7.1073797702
 F     -1.0418160107    -3.5449606695    -7.3425577343
 H     -2.9963719890    -3.9605140220    -5.6603976371
 F     -3.2831584306    -3.2227090710    -6.1233084183
 H     -1.1858831725    -4.7912322378    -6.1013273166
 F     -1.6953339646    -5.1712249701    -5.4403020419
          6
Energy: -17.54812544615504 Kcal/mole
 H     -1.9981701750    -3.1955454536    -7.1913025899
 F     -1.1082577560    -3.2183652544    -6.9712477259
 H     -3.3732066999    -4.1441910558    -6.0168137471
 F     -3.6328897116    -3.7124497580    -6.7830077077
 H     -1.4000790215    -4.2012517925    -5.5270478953
 F     -2.0086865085    -4.6463993484    -5.0051958279
          6
Energy: -17.54734457031782 Kcal/mole
 H     -2.3027726251    -2.8729184641    -6.6970479052
 F     -1.5674270380    -2.4867675280    -6.3084049816
 H     -3.5429416209    -4.0509648544    -5.6255157634
 F     -3.6827062857    -3.9238781025    -6.5228472495
 H     -1.9722072980    -3.1689242639    -4.7264126407
 F     -2.5402573779    -3.6747229232    -4.2141863012
          6
Energy: -17.42993341742107 Kcal/mole
 H     -2.2775272305    -2.3503977382    -6.2777640078
 F     -1.5220762980    -2.0835199482    -5.8317156541
 H     -3.5445712055    -3.7975548050    -5.5297857435
 F     -3.7678117943    -3.4016087437    -6.3262023154
 H     -1.9008985893    -3.1732737514    -4.4888722050
 F     -2.4574001711    -3.8249476364    -4.1625041043
          6
Energy: -17.543101730710248 Kcal/mole
 H     -2.0555086761    -2.6336262259    -6.5134194292
 F     -1.2012957462    -2.9087765734    -6.3250008619
 H     -3.6107421582    -3.6965044984    -5.8240895537
 F     -3.7750433310    -2.9560679458    -6.3394999108
 H     -1.7467119335    -4.2464909930    -5.3209084238
 F     -2.4610756982    -4.7319235348    -5.0128034755
          6
Energy: -17.49788174272726 Kcal/mole
 H     -2.1938589549    -2.4540024046    -6.4928180983
 F     -1.3825255135    -2.7252424338    -6.1625819805
 H     -3.8635834899    -3.4568994483    -5.8680792565
 F     -3.9819294214    -2.7814972108    -6.4769429999
 H     -2.0519609631    -4.0335306130    -5.1208339146
 F     -2.8236077749    -4.4506931675    -4.8535782298
          6
Energy: -17.536449619965026 Kcal/mole
 H     -2.3899790536    -3.0216626805    -7.1918760883
 F     -1.5189855138    -3.2923323667    -7.0970226510
 H     -3.8078335743    -3.6511732284    -5.9265040290
 F     -4.0294241899    -3.0528598441    -6.5851448213
 H     -1.9262421262    -4.2847986582    -5.6638152180
 F     -2.5895724749    -4.6070734082    -5.1188190400
          6
Energy: -17.513663654080062 Kcal/mole
 H     -2.1032442659    -2.7837302475    -6.5216961230
 F     -1.3759925861    -3.2976229686    -6.7405756914
 H     -3.5484255614    -3.6657964387    -5.3851360574
 F     -3.6839907577    -2.8012009412    -5.6589712327
 H     -1.9572071379    -4.7336023133    -5.8850904431
 F     -2.6263846650    -5.1041581384    -5.3793446396
          6
Energy: -17.568984692395418 Kcal/mole
 H     -1.9846363455    -3.0061859175    -6.7179759528
 F     -1.2103782757    -3.4945744401    -6.7717355307
 H     -3.5677335831    -3.7392304631    -5.7039982287
 F     -3.6310531722    -2.9103645157    -6.0911169067
 H     -1.8713999329    -4.8106826979    -5.7994801992
 F     -2.5879486283    -5.1573596805    -5.3442197938
          6
Energy: -17.523881005315047 Kcal/mole
 H     -1.8293155985    -3.4682613580    -6.8250642213
 F     -0.9659666141    -3.7239097888    -6.6513938124
 H     -3.2762260551    -3.8596339673    -5.5456649180
 F     -3.4919271229    -3.3936958700    -6.3054436613
 H     -1.4473252055    -4.4898122736    -5.1319165598
 F     -2.1245834334    -4.6668449527    -4.5395739871
          6
Energy: -17.522291755042033 Kcal/mole
 H     -1.8211630536    -3.2000414519    -7.0796276277
 F     -1.0822640615    -3.7430933028    -7.0761683581
 H     -3.1525893446    -3.1854150911    -5.6287507467
 F     -3.2764300895    -2.6548075453    -6.3663197958
 H     -1.5330928508    -4.4083149126    -5.4690448272
 F     -2.1671189512    -4.3892646104    -4.8068235726
          6
Energy: -17.501496410696177 Kcal/mole
 H     -1.8510771098    -2.9910679432    -6.8810165983
 F     -1.1765567435    -3.6073041297    -6.8025039369
 H     -3.6033178189    -3.2489356023    -5.8727187866
 F     -3.5261711434    -2.5359648089    -6.4442168515
 H     -2.1146726220    -4.6117292946    -5.7032979211
 F     -2.9113328838    -4.7499237284    -5.2707199214
          6
Energy: -17.55182021636375 Kcal/mole
 H     -2.2334258378    -2.3828422394    -6.1129851761
 F     -1.5565485144    -2.6745601876    -5.5674334116
 H     -3.7816349697    -3.5916514896    -6.5713061252
 F     -3.7622172989    -2.7304834896    -6.8857924202
 H     -2.2784032173    -4.2951487634    -5.3822154879
 F     -2.9787868808    -4.8508942534    -5.5859277218
          6
Energy: -17.527674512195972 Kcal/mole
 H     -2.7877504474    -1.9950639832    -5.5455459735
 F     -2.2311667406    -2.2191566190    -4.8520864809
 H     -4.1456998511    -3.2624379117    -6.2746272128
 F     -4.0825487944    -2.4253188600    -6.6435887790
 H     -2.9202227981    -3.8587867519    -4.7343807303
 F     -3.5739380826    -4.4197520689    -5.0488059838
          6
Energy: -17.499412097247728 Kcal/mole
 H     -2.2759846604    -2.2075771986    -6.4837411765
 F     -1.6391380680    -2.5171736773    -5.9011045504
 H     -4.0131349308    -3.2822111222    -6.7785561786
 F     -3.9194351893    -2.4941208652    -7.2379286912
 H     -2.5846468000    -3.9357578039    -5.5066298389
 F     -3.3345018521    -4.4474218742    -5.6362688761
          6
Energy: -17.52634795707371 Kcal/mole
 H     -2.5585472136    -1.7243231771    -6.2328398598
 F     -1.9262343614    -1.9152099342    -5.5967331840
 H     -4.2011654488    -2.8793586719    -6.4843650875
 F     -4.0649453670    -2.1701192104    -7.0494424942
 H     -2.8734214555    -3.2991365004    -5.0188602330
 F     -3.6328103144    -3.8094193708    -5.0807387685
          6
Energy: -17.510833837399275 Kcal/mole
 H     -2.6269850387    -1.8402915387    -6.4322588991
 F     -1.8281637714    -1.9729607100    -6.0019421856
 H     -4.1327354740    -3.1447523213    -6.3863232599
 F     -4.2246371998    -2.3868531027    -6.8942916124
 H     -2.4188977074    -3.5338171375    -5.3929015524
 F     -3.1132231327    -4.1297059919    -5.3319287955
          6
Energy: -17.543974818150843 Kcal/mole
 H     -2.9494090896    -1.8699598722    -6.2220202377
 F     -2.0788639977    -2.0576766960    -6.4406583795
 H     -4.1630629586    -3.3886197482    -5.4941869056
 F     -4.4857864183    -2.5341675507    -5.5757345042
 H     -2.2404282331    -3.7445277964    -6.0389190548
 F     -2.7408781150    -4.4511345424    -5.7370153910
          6
Energy: -17.530630924111563 Kcal/mole
 H     -2.7968251521    -1.8878242814    -6.4847739289
 F     -1.9094300317    -2.0634772435    -6.6349902304
 H     -4.0362232955    -3.3029977154    -5.8109328850
 F     -4.3799180534    -2.4630654825    -5.9423739654
 H     -2.0910952286    -3.7943781700    -6.1740417787
 F     -2.6809014804    -4.4306417438    -5.8770800808
          6
Energy: -17.54051747975501 Kcal/mole
 H     -2.7693077899    -1.9474170308    -6.3959733873
 F     -1.8749826365    -2.1166957704    -6.2845452566
 H     -4.0694998212    -3.5214553673    -6.5512922172
 F     -4.3953840234    -2.6649692343    -6.5847584794
 H     -2.1339896806    -3.8673092360    -6.2658701739
 F     -2.7012399828    -4.5840459324    -6.3393861775
          6
Energy: -17.552503832093066 Kcal/mole
 H     -2.9648097087    -2.2742603615    -5.5088320709
 F     -2.1129094607    -2.5442956861    -5.3033183466
 H     -4.1789785071    -3.5080809005    -6.5905459886
 F     -4.4949472384    -2.6827981348    -6.3456763959
 H     -2.3264725704    -4.1453954374    -6.0789071388
 F     -2.8831885031    -4.6909159092    -6.5619845499
          6
Energy: -17.552536690919055 Kcal/mole
 H     -2.8631994913    -2.3182662146    -5.6589674958
 F     -1.9663000332    -2.4807271529    -5.7593009675
 H     -4.1926661265    -3.6807375486    -6.4757236820
 F     -4.5168680240    -2.9574509383    -6.0145961411
 H     -2.2055802374    -3.9512436920    -6.6714945367
 F     -2.7721657299    -4.5638521401    -7.0517323164
          6
Energy: -17.52986144281124 Kcal/mole
 H     -2.5688409074    -3.0456909674    -5.0316083533
 F     -1.8186076088    -3.0295857230    -5.5586563765
 H     -4.1293763806    -4.2288427756    -5.5109924252
 F     -4.1859983080    -3.7031632680    -4.7617634798
 H     -2.4508549253    -4.3107820409    -6.6615011268
 F     -3.1717812491    -4.8493397049    -6.8378810526
          6
Energy: -17.50804364481951 Kcal/mole
 H     -2.5043770143    -3.2232439735    -4.8873569996
 F     -1.6994216490    -3.2145290537    -5.3265151829
 H     -4.1635250233    -3.9628559762    -5.6817080971
 F     -4.1759421976    -3.6282900516    -4.8280099913
 H     -2.4704690218    -3.9994648037    -6.7946705411
 F     -3.2544467340    -4.3386765072    -7.1281422295
          6
Energy: -17.56435900561047 Kcal/mole
 H     -2.4403543913    -3.8086835713    -4.6715848349
 F     -1.7018852162    -4.2243096775    -5.0220234419
 H     -4.1405575839    -3.5618903687    -5.7239623499
 F     -4.0973586954    -3.2606025559    -4.8589487605
 H     -2.5237631654    -4.4913552626    -6.5710005227
 F     -3.2841056864    -4.3703481823    -7.0691225331
          6
Energy: -17.533862952419213 Kcal/mole
 H     -2.5473203198    -3.8227355188    -4.6778928492
 F     -1.8002065410    -4.0912471162    -5.1368171605
 H     -4.4340961131    -4.0558082652    -5.4656499103
 F     -4.3134097003    -3.6472355059    -4.6536202986
 H     -2.7584741561    -4.6926184593    -6.4455851070
 F     -3.5741016410    -4.8497725695    -6.8340994458
          6
Energy: -17.55998363639293 Kcal/mole
 H     -2.7653324032    -2.9240780538    -4.7693204599
 F     -2.0393047857    -3.0175532915    -5.3216204496
 H     -4.5807718981    -3.5247834920    -5.3946487016
 F     -4.5056093089    -3.1644958388    -4.5547484740
 H     -2.9989017377    -3.7156854499    -6.6091937830
 F     -3.8157289603    -4.0033673374    -6.9107255722
          6
Energy: -17.535895545627227 Kcal/mole
 H     -2.6283323215    -2.9251750201    -4.8626796973
 F     -1.8922744381    -3.1471542121    -5.3625127000
 H     -4.5053626553    -3.3959609059    -5.4065347783
 F     -4.3433857617    -2.9577034044    -4.6174955852
 H     -2.8963421624    -3.8569778160    -6.6042671428
 F     -3.7353377672    -4.0765001579    -6.9022357930
          6
Energy: -17.54061636777186 Kcal/mole
 H     -2.3331804237    -2.8555132176    -5.0796867099
 F     -1.7175825393    -3.1566979288    -5.6889617008
 H     -4.1885091801    -3.6039734248    -5.1085915009
 F     -3.9668739326    -2.9916754831    -4.4629460505
 H     -2.8908173773    -4.2039408945    -6.5014683891
 F     -3.7485957786    -4.5269702800    -6.5289862062
          6
Energy: -17.563491917438455 Kcal/mole
 H     -2.3085543668    -2.9182551391    -5.0021231471
 F     -1.6596295175    -3.3912642842    -5.4448961008
 H     -4.2664896000    -3.3661765782    -5.2642205971
 F     -4.0420390657    -2.6767028464    -4.7028500147
 H     -2.8413419466    -4.4030502402    -6.2907002994
 F     -3.7268425641    -4.6144354745    -6.4006727467
          6
Energy: -17.565246669584383 Kcal/mole
 H     -2.3806837994    -3.0045533385    -4.8615580889
 F     -1.7418501188    -3.6324504633    -5.0578378108
 H     -4.2712321272    -3.2164580137    -5.4895160998
 F     -4.0426594121    -2.4849729362    -4.9859556810
 H     -2.8968933362    -4.6138419167    -5.9308900990
 F     -3.7589473233    -4.7252952511    -6.2230032238
          6
Energy: -17.561794443025406 Kcal/mole
 H     -2.4677895690    -3.1792255408    -4.3010748076
 F     -1.8197879267    -3.7774158308    -4.5523739293
 H     -4.3061942193    -3.2564464891    -5.1411763364
 F     -4.1168886979    -2.6101821049    -4.5187658888
 H     -2.9028530641    -4.5813510787    -5.6818261684
 F     -3.7416810921    -4.6506032306    -6.0457776472
          6
Energy: -17.553957140665204 Kcal/mole
 H     -2.5820446434    -3.1644865730    -4.2449426628
 F     -1.9476391653    -3.7870015655    -4.4705391465
 H     -4.3934414482    -3.1894351662    -5.1121487375
 F     -4.1952614928    -2.5310743865    -4.5053746535
 H     -3.0102081053    -4.5947116549    -5.5827670902
 F     -3.8392843659    -4.6312442285    -5.9728785168
          6
Energy: -17.567241124781503 Kcal/mole
 H     -2.6078125088    -3.1782914307    -4.3419868061
 F     -1.9331179552    -3.7181295369    -4.6489901910
 H     -4.3745418580    -3.0241056632    -5.3148140679
 F     -4.2370611546    -2.5408005886    -4.5477389340
 H     -2.8940046413    -4.2559601399    -6.0269898909
 F     -3.6943074779    -4.1917889706    -6.4700321356
          6
Energy: -17.547194213850332 Kcal/mole
 H     -2.4365087539    -2.7953585967    -4.6894552873
 F     -1.7262638196    -3.2756270173    -5.0146988536
 H     -4.3008872367    -3.0697839785    -5.4190843622
 F     -4.1596259562    -2.4729179674    -4.7374061276
 H     -2.7323694033    -4.1315074252    -6.1206870115
 F     -3.5567315692    -4.2773411701    -6.4949176066
          6
Energy: -17.55801607040337 Kcal/mole
 H     -2.4456048733    -3.0177197315    -4.6840566098
 F     -1.7217160612    -3.3172515977    -5.1606640465
 H     -4.3242210753    -3.4766991513    -5.2363666450
 F     -4.1904729138    -2.9480995723    -4.4990858882
 H     -2.7332732891    -4.1318266206    -6.3150954084
 F     -3.5756730906    -4.3580441234    -6.5980745874
          6
Energy: -17.551573982497757 Kcal/mole
 H     -2.3720327455    -3.0934029791    -4.9003255648
 F     -1.7337881996    -3.1893907862    -5.5517234773
 H     -4.2318897648    -3.9214496190    -5.1177634820
 F     -4.0270259715    -3.4582236020    -4.3533411620
 H     -2.8237324513    -4.0889954810    -6.5984335128
 F     -3.6485512687    -4.4766678659    -6.6997895215
          6
Energy: -17.533113697751617 Kcal/mole
 H     -2.3825208148    -2.9575508856    -5.0268840337
 F     -1.7784084659    -3.0494289654    -5.7106205972
 H     -4.2389541701    -3.7900706420    -5.1200773167
 F     -3.9993194581    -3.3194338614    -4.3704339178
 H     -2.9052979767    -3.9636669656    -6.6843093975
 F     -3.7472898310    -4.3182169655    -6.7632588426
          6
Energy: -17.56762711279066 Kcal/mole
 H     -2.4760280491    -2.6085777018    -5.0613917993
 F     -1.8791787143    -2.6101406285    -5.7575652180
 H     -4.2330301692    -3.6274776998    -5.1683940548
 F     -4.0329642555    -3.1557082704    -4.4079361430
 H     -2.9222938526    -3.6257742433    -6.7357882828
 F     -3.7061365359    -4.0973867352    -6.7995166531
          6
Energy: -17.55825323336194 Kcal/mole
 H     -2.5610440318    -2.5641364127    -5.1285506364
 F     -1.9534159844    -2.6238005468    -5.8127416530
 H     -4.2231155327    -3.7483331211    -5.1432858070
 F     -4.1111186246    -3.1581639386    -4.4504322664
 H     -2.8656041834    -3.8793202619    -6.6077447946
 F     -3.5991292804    -4.4292597151    -6.6276578490
          6
Energy: -17.54512052149829 Kcal/mole
 H     -2.2988954485    -2.7454084374    -5.0012142406
 F     -1.8647578681    -2.7124602257    -5.8082631714
 H     -3.7917025410    -4.1259621694    -4.7426012297
 F     -3.5815324292    -3.5607933448    -4.0517309642
 H     -2.8522850514    -3.9828483749    -6.5216862488
 F     -3.5359407317    -4.5837332268    -6.4101456487
          6
Energy: -17.537476457047433 Kcal/mole
 H     -2.0792334934    -2.9005984421    -5.0173082733
 F     -1.6447344932    -2.8894985586    -5.8247588362
 H     -3.8897302605    -3.7773647187    -4.8019769791
 F     -3.4769336914    -3.3841862964    -4.0837160788
 H     -2.9173506206    -3.8274788607    -6.6211822028
 F     -3.7245090006    -4.2528736984    -6.5294021306
          6
Energy: -17.55364314614593 Kcal/mole
 H     -2.3755436452    -2.4885219125    -5.0356670759
 F     -2.0145263348    -2.3414910150    -5.8656896158
 H     -3.9938824322    -3.7187502098    -4.8295796732
 F     -3.6282996615    -3.3299728452    -4.0838649834
 H     -3.2071490871    -3.3280783736    -6.6663971223
 F     -3.9392550214    -3.8746812941    -6.5880699349
          6
Energy: -17.568889169462693 Kcal/mole
 H     -2.3551356473    -2.5955293539    -4.9423149216
 F     -1.8965534423    -2.5082352718    -5.7316001074
 H     -3.9635407832    -3.8113834028    -4.8122489946
 F     -3.6811010450    -3.3400909054    -4.0780826809
 H     -2.9590729516    -3.6339093730    -6.5650310074
 F     -3.6953244254    -4.1786889514    -6.5198870328
          6
Energy: -17.546429028786747 Kcal/mole
 H     -2.1479932016    -2.8735993849    -5.0510909105
 F     -1.8738567878    -2.5788398649    -5.8750175165
 H     -3.7619568809    -4.0843932234    -4.8231415126
 F     -3.3106506457    -3.7990989643    -4.0776089058
 H     -3.1459563927    -3.4760847365    -6.6915357982
 F     -3.8606333661    -4.0454979879    -6.6147609798
          6
Energy: -17.565522538120604 Kcal/mole
 H     -1.9612494725    -3.0550216841    -5.0267698805
 F     -1.7049831441    -2.7744125016    -5.8613206911
 H     -3.5501613987    -4.2947492543    -4.7547053316
 F     -3.0720207024    -3.9917570340    -4.0332719050
 H     -3.0109227509    -3.7162262762    -6.6319423997
 F     -3.7229892608    -4.2815915478    -6.5127266497
          6
Energy: -17.531567590909447 Kcal/mole
 H     -1.8190792777    -3.2300847158    -4.9763126637
 F     -1.5897445612    -2.8931758922    -5.7977668818
 H     -3.4750772620    -4.3516367499    -4.7343028094
 F     -2.9375739766    -4.1843503022    -4.0104281913
 H     -2.9832290986    -3.6886513866    -6.6089840286
 F     -3.7553539079    -4.1651333962    -6.4760284965
          6
Energy: -17.56463859166206 Kcal/mole
 H     -1.7372459144    -3.3912308226    -4.9841551705
 F     -1.6171573054    -2.9195293311    -5.7613072977
 H     -3.3170691589    -4.6479079347    -4.8152083570
 F     -2.7486357169    -4.5546871033    -4.1017083229
 H     -3.0588855406    -3.6191164584    -6.5387329785
 F     -3.7769070293    -4.1825692211    -6.4501038297
          6
Energy: -17.555991819454903 Kcal/mole
 H     -1.8651857591    -3.3999079349    -4.8223976001
 F     -1.6130405524    -2.9496626781    -5.5804154122
 H     -3.4740375879    -4.5766946208    -4.7713804748
 F     -2.9710138130    -4.4664031872    -4.0126368544
 H     -2.9714222210    -3.6179527075    -6.5013941211
 F     -3.7200638877    -4.1463905757    -6.4670710345
          6
Energy: -17.574620223120974 Kcal/mole
 H     -1.7696697342    -3.3541368942    -4.9143983674
 F     -1.5570475257    -2.9348025893    -5.7016972542
 H     -3.5260120471    -4.3478110442    -4.7491152639
 F     -2.9573948394    -4.3300103989    -4.0299166765
 H     -3.0725486343    -3.4254970685    -6.4841370023
 F     -3.8633453276    -3.8822117020    -6.4008223366
          6
Energy: -17.559472664355326 Kcal/mole
 H     -1.8178513960    -3.3904979860    -4.9484451507
 F     -1.5471657588    -3.0342672320    -5.7488937347
 H     -3.5843667154    -4.3566066420    -4.7272679755
 F     -3.0053130725    -4.2873159092    -4.0196065643
 H     -3.0546356040    -3.5212618189    -6.5298569960
 F     -3.8643508417    -3.9439475148    -6.4486964381
          6
Energy: -17.564656353138787 Kcal/mole
 H     -1.8235682722    -3.2957031647    -4.8986788863
 F     -1.5627354784    -2.9821504923    -5.7199827127
 H     -3.5992962646    -4.2578459569    -4.7027731094
 F     -3.0756960178    -4.1490525815    -3.9578598373
 H     -3.0055536418    -3.5588508209    -6.4937703617
 F     -3.8140570607    -3.9865769371    -6.4284894971
          6
Energy: -17.56791417555678 Kcal/mole
 H     -1.7959511305    -3.2795265859    -4.8836672751
 F     -1.5401503475    -2.9384404989    -5.6955264012
 H     -3.5080559715    -4.3421186926    -4.6903406637
 F     -2.9911257419    -4.1719513009    -3.9522924291
 H     -2.9470424904    -3.6260704176    -6.5229389873
 F     -3.7107780286    -4.1274377454    -6.4440223833
          6
Energy: -17.566754296782392 Kcal/mole
 H     -1.8117563825    -3.2797521197    -4.8588521605
 F     -1.5147897645    -2.9401843630    -5.6572214775
 H     -3.4388268741    -4.4784615160    -4.7482512386
 F     -2.9766771892    -4.2603814841    -3.9868395441
 H     -2.8298181289    -3.7407479233    -6.5630352036
 F     -3.5753536494    -4.2717789193    -6.5076107602
          6
Energy: -17.56275374372433 Kcal/mole
 H     -1.6911711540    -3.3386195876    -4.8183230394
 F     -1.4071766165    -2.9549671279    -5.6012961505
 H     -3.3971828723    -4.4433016304    -4.7400318123
 F     -2.9156960834    -4.2989166080    -3.9730817243
 H     -2.7800643610    -3.6266269370    -6.5201118151
 F     -3.5463016135    -4.1293104876    -6.4872679286
          6
Energy: -17.569575400093754 Kcal/mole
 H     -1.6183680996    -3.4197994398    -4.8141781522
 F     -1.3076421027    -3.0841916082    -5.6089773332
 H     -3.4000875274    -4.3826989177    -4.7417164846
 F     -2.9182197474    -4.2572250738    -3.9716848248
 H     -2.6961710751    -3.6831210749    -6.4979102094
 F     -3.4986599342    -4.1265459150    -6.4813258141
          6
Energy: -17.56637863427278 Kcal/mole
 H     -1.5923630059    -3.4350047870    -4.9062745913
 F     -1.2525033638    -3.2184789600    -5.7299863066
 H     -3.4646737771    -4.1926708524    -4.7366225197
 F     -2.9557383649    -4.0884555424    -3.9809685542
 H     -2.7193510600    -3.7128474108    -6.5337291110
 F     -3.5738963106    -4.0417423316    -6.4840345868
          6
Energy: -17.57101650041085 Kcal/mole
 H     -1.5501021261    -3.4867905438    -4.8913733311
 F     -1.2086978534    -3.2513930156    -5.7092487044
 H     -3.4487037688    -4.1724267048    -4.7288583154
 F     -2.9451890192    -4.0830429505    -3.9676931287
 H     -2.6902761577    -3.6991397857    -6.5495001943
 F     -3.5456013974    -4.0233829381    -6.4848928233
          6
Energy: -17.566840884443366 Kcal/mole
 H     -1.4822014823    -3.7228099027    -4.9033545628
 F     -1.1150625873    -3.5403512729    -5.7236026230
 H     -3.4595661634    -4.1045130392    -4.7323764763
 F     -2.9454507314    -4.0972180869    -3.9730866066
 H     -2.6540461597    -3.7170284250    -6.5486552586
 F     -3.5477324281    -3.9139292880    -6.4899704743
          6
Energy: -17.576169641884235 Kcal/mole
 H     -1.4776994340    -3.7559174825    -4.8617362979
 F     -1.1051555487    -3.5782930248    -5.6806072313
 H     -3.4607287109    -4.1242035031    -4.6994061470
 F     -2.9431700545    -4.1184421395    -3.9424458813
 H     -2.6596829919    -3.7548401582    -6.5111257064
 F     -3.5574258976    -3.9275251822    -6.4395257221
          6
Energy: -17.573019567971812 Kcal/mole
 H     -1.4613227974    -3.8009411444    -4.8841829138
 F     -1.0983717178    -3.6180355745    -5.7061932947
 H     -3.4600268509    -4.1001956392    -4.6997181471
 F     -2.9214664154    -4.1371321949    -3.9584507539
 H     -2.6687641240    -3.6972203447    -6.5243506940
 F     -3.5706044912    -3.8440174261    -6.4467390386
          6
Energy: -17.57921015242789 Kcal/mole
 H     -1.4649208709    -3.7981533699    -4.9156494035
 F     -1.1052798489    -3.6269575589    -5.7416272057
 H     -3.4557774746    -4.0894097670    -4.7032240942
 F     -2.9170846797    -4.1333091498    -3.9624326817
 H     -2.6763842343    -3.7084308612    -6.5296559983
 F     -3.5804552803    -3.8359989334    -6.4443862461
          6
Energy: -17.570475514993632 Kcal/mole
 H     -1.4487682580    -3.7286504125    -4.9069774342
 F     -1.1120108793    -3.5056622348    -5.7302390818
 H     -3.4254404030    -4.1402353578    -4.6942712523
 F     -2.8788978006    -4.1726130965    -3.9586545956
 H     -2.6927096331    -3.6344362949    -6.5130340541
 F     -3.5896959708    -3.8041813571    -6.4264827758
          6
Energy: -17.57764101037793 Kcal/mole
 H     -1.4570566982    -3.6973949002    -4.9076532687
 F     -1.1209778883    -3.4753341724    -5.7314427240
 H     -3.4365880746    -4.1104340126    -4.6845367185
 F     -2.8792008569    -4.1497991182    -3.9574473994
 H     -2.6942984420    -3.6234786981    -6.5070458502
 F     -3.5896116882    -3.8047626323    -6.4268004361
          6
Energy: -17.573312060657656 Kcal/mole
 H     -1.4857286973    -3.6272152953    -4.8984120995
 F     -1.1456340409    -3.4043105107    -5.7203233366
 H     -3.4431600662    -4.0804434624    -4.6680191091
 F     -2.8810444636    -4.0955205763    -3.9436657907
 H     -2.7098645825    -3.5943542141    -6.4857337239
 F     -3.5998227295    -3.8026150380    -6.4116329416
          6
Energy: -17.577221155898087 Kcal/mole
 H     -1.4826843340    -3.6047716777    -4.8914255031
 F     -1.1457955373    -3.4055010928    -5.7206939594
 H     -3.4440925868    -4.0755858622    -4.6764142991
 F     -2.8987383433    -4.0772252032    -3.9392066881
 H     -2.7104377329    -3.6411712866    -6.5097738152
 F     -3.5998380545    -3.8453641818    -6.4194337382
          6
Energy: -17.57873682180667 Kcal/mole
 H     -1.4994685556    -3.5795343372    -4.8956247716
 F     -1.1586169302    -3.3727314793    -5.7214224148
 H     -3.4454394737    -4.0607626114    -4.6711167961
 F     -2.8949288320    -4.0501840974    -3.9378261794
 H     -2.7273708735    -3.6150332263    -6.5099696167
 F     -3.6136039409    -3.8290227542    -6.4115397825
          6
Energy: -17.57773354429753 Kcal/mole
 H     -1.4986964379    -3.5746113805    -4.8940905637
 F     -1.1586578893    -3.3729926308    -5.7215038010
 H     -3.4563801323    -4.0631897310    -4.6773423307
 F     -2.9166784148    -4.0462794833    -3.9361776394
 H     -2.7173003331    -3.6161600664    -6.5094391475
 F     -3.6021813963    -3.8411260449    -6.4242052773
          6
Energy: -17.579032891836675 Kcal/mole
 H     -1.5008642606    -3.5725791738    -4.8944919907
 F     -1.1585428913    -3.3731004347    -5.7214825062
 H     -3.4465758793    -4.0648675942    -4.6765258518
 F     -2.9004369879    -4.0436847926    -3.9402021457
 H     -2.7156152652    -3.6242724324    -6.5128604709
 F     -3.6022707852    -3.8406957026    -6.4240237840
          6
Energy: -17.580223915304373 Kcal/mole
 H     -1.5003543901    -3.5737861913    -4.8945731793
 F     -1.1585699387    -3.3730364052    -5.7214781993
 H     -3.4544156032    -4.0621205536    -4.6763426985
 F     -2.9096725758    -4.0427188083    -3.9389367002
 H     -2.7163355707    -3.6212110747    -6.5125323337
 F     -3.6022325747    -3.8408581005    -6.4240411909
