          22
Energy: -87.25600036612298 Kcal/mole
 H     -5.2204170104    -1.4006499194    -2.3727843646
 F     -5.1451162556    -2.1962030216    -2.8225777148
 H     -5.9574540894    -2.4755023316    -4.2386915160
 F     -6.3468593900    -2.5028248079    -5.0684541291
 H     -1.4780494951     5.2855240317    -2.6458439557
 F     -1.6720325513     6.1189189108    -2.3161280940
 H     -4.8120663078     0.7523532079    -1.7805057756
 F     -5.3846820997     0.0574304895    -1.6070624988
 H     -5.7125462798    -1.3807118010    -6.1027824887
 F     -5.2803328462    -0.6796402574    -6.5059936476
 H     -3.2862388846     1.9370271044    -4.7281884878
 F     -2.7389923241     2.6556762036    -4.8861558078
 H     -2.3913471855     5.9773935211    -0.8380168319
 F     -2.7925964506     5.7217456116    -0.0540958068
 H     -2.8989738084     4.0893036736     0.1743710278
 F     -2.9442090119     3.1734368934     0.1688197045
 H     -4.6030047091     0.1944459009    -5.3078340969
 F     -4.2715863247     0.5988166946    -4.5544848314
 H     -3.4281614466     2.4079704357    -1.2065607776
 F     -3.7427647298     2.0181010101    -1.9746204141
 H     -1.8223021579     3.2830152442    -3.6598743573
 F     -1.3160218797     3.6759408433    -3.0039942208
