          22
Energy: -87.24897705212648 Kcal/mole
 H     -5.2246926907    -1.4110180570    -2.3455966000
 F     -5.1613128219    -2.2081687786    -2.7943980252
 H     -5.9454427775    -2.4758185729    -4.2274227973
 F     -6.3226132992    -2.5045678411    -5.0627699570
 H     -1.4792518288     5.2775623008    -2.6433716033
 F     -1.6735885309     6.1090902224    -2.3091806971
 H     -4.7757961288     0.7336376223    -1.7623767089
 F     -5.3580963972     0.0485190972    -1.5822989370
 H     -5.6961261253    -1.3897495132    -6.1088953154
 F     -5.2702291916    -0.6893076781    -6.5198479129
 H     -3.3259183307     1.9537377833    -4.7266488213
 F     -2.7849433016     2.6778981220    -4.8810082130
 H     -2.4324694485     5.9709391270    -0.8497271809
 F     -2.8536668676     5.7171569345    -0.0757269658
 H     -2.9211709544     4.0868054418     0.1695793292
 F     -2.9408182812     3.1700191984     0.1720219435
 H     -4.6205293536     0.1978475095    -5.3204763313
 F     -4.3029997802     0.6064276257    -4.5634253036
 H     -3.3911589270     2.3833521358    -1.2024970302
 F     -3.6923258029     1.9818038789    -1.9699255351
 H     -1.8415722649     3.2841163688    -3.6654888209
 F     -1.3206192780     3.6710338070    -3.0175753378
