          22
Energy: -87.24962939206222 Kcal/mole
 H     -5.2029397390    -1.4125851536    -2.3556791405
 F     -5.1375085178    -2.2029465483    -2.8160448876
 H     -5.9587872864    -2.4762421359    -4.2289577733
 F     -6.3455145912    -2.5012346836    -5.0600452321
 H     -1.5066412103     5.2988845673    -2.6638721921
 F     -1.6991672372     6.1307262089    -2.3294141047
 H     -4.7849707036     0.7344030534    -1.7409400184
 F     -5.3472154775     0.0317453552    -1.5647526938
 H     -5.6591363788    -1.4110493858    -6.0939092991
 F     -5.2014057642    -0.7238332343    -6.4927897895
 H     -3.3513494768     1.9623360185    -4.7083641622
 F     -2.8282161648     2.6966525955    -4.8756952786
 H     -2.4220315309     5.9815129744    -0.8509977493
 F     -2.8240138818     5.7239075458    -0.0680937752
 H     -2.9053307612     4.0941062376     0.1902815373
 F     -2.9395335510     3.1777974295     0.2001475094
 H     -4.5831962971     0.1734929137    -5.2800093819
 F     -4.2876983481     0.5955690287    -4.5214438176
 H     -3.4254526960     2.4071092560    -1.1715979749
 F     -3.7395201753     2.0166002419    -1.9395519633
 H     -1.8734783863     3.3092289178    -3.6753717664
 F     -1.3462464560     3.6949838026    -3.0318590155
