          22
Energy: -87.08394120759074 Kcal/mole
 H     -6.7698257705     0.4884259926    -1.3662432182
 F     -7.4677791611     0.3789104990    -1.9508425863
 H     -7.4089906926    -0.8582885083    -3.0632998467
 F     -7.2385042137    -1.4858249049    -3.7098456157
 H     -3.6487833494     6.0157007888    -1.8718235989
 F     -4.3014492283     6.5115280834    -1.4606404957
 H     -4.8499455200     1.3122957863    -0.6141918861
 F     -5.4625366594     0.6714134800    -0.3799036759
 H     -5.9526112618    -1.0931063640    -4.6605975125
 F     -5.2026807680    -0.7368297952    -5.0499049246
 H     -3.4267902684     2.3010944202    -3.6997707246
 F     -2.9193612605     3.0258410577    -3.9409078500
 H     -4.1363298138     6.3731930018     0.1722787956
 F     -3.9554057268     6.1399106039     1.0404578080
 H     -3.2919368516     4.6425990378     1.2210655477
 F     -2.9726342614     3.7846908461     1.1669509428
 H     -4.6199256985     0.3773561235    -4.0160845209
 F     -4.4029053991     0.9792187957    -3.3591579547
 H     -3.4506447420     2.9803567203    -0.1774595879
 F     -3.8051421683     2.5848144265    -0.9249666905
 H     -2.5904324298     4.2694557639    -2.8906560380
 F     -2.4409701599     4.9877662171    -2.3405832040
