          22
Energy: -87.0383355792732 Kcal/mole
 H     -6.6096688008     3.4925275231    -2.8106787759
 F     -6.9127392250     3.9649898610    -3.5358109412
 H     -6.2234431863     3.7563399941    -5.0239474912
 F     -5.6891927500     3.6755817762    -5.7648547604
 H     -2.3343507356     5.3572086710     2.8879397431
 F     -2.0407393225     4.8765297087     3.6115619327
 H     -5.3643703855     2.9040062602    -0.9671571767
 F     -6.0000200390     2.5944893293    -1.5511415836
 H     -4.1862365519     4.2582936182    -5.4236764088
 F     -3.4108891673     4.5752872896    -5.0505270480
 H     -2.5565394930     4.9345956234    -1.3605857424
 F     -1.9461472963     5.2381410226    -0.7472582957
 H     -2.5829743290     3.3556738490     4.0049983665
 F     -2.9223556719     2.5084309780     4.0938174055
 H     -3.4663673031     1.7691295093     2.7149113889
 F     -3.7566882425     1.4857983601     1.8925208417
 H     -3.5160617016     4.5342181269    -3.4116292666
 F     -3.6804697144     4.4644769188    -2.5121876792
 H     -4.0841748319     2.6502290148     0.7910658741
 F     -4.2558917562     3.3335764836     0.2041770133
 H     -2.5601446499     5.7932472904     0.6895858203
 F     -2.8841240988     6.0798001599     1.4981733354
