          22
Energy: -87.25054118793422 Kcal/mole
 H     -5.2237799365    -1.3977473020    -2.3578800246
 F     -5.1505327180    -2.1926131326    -2.8092248553
 H     -5.9543498894    -2.4644372349    -4.2306738705
 F     -6.3407223346    -2.4931496171    -5.0618061900
 H     -1.4720730749     5.2762082772    -2.6437574356
 F     -1.6705859369     6.1081354828    -2.3130328247
 H     -4.7934667493     0.7443153363    -1.7698538213
 F     -5.3751191970     0.0578190773    -1.5929574775
 H     -5.7046652008    -1.3849971529    -6.1108812882
 F     -5.2732477614    -0.6882845497    -6.5224144479
 H     -3.3161596506     1.9560213467    -4.7296855470
 F     -2.7658159315     2.6738525371    -4.8804475216
 H     -2.4365693264     5.9699728800    -0.8564159873
 F     -2.8609861867     5.7164824853    -0.0840806013
 H     -2.9251287016     4.0873788136     0.1661535616
 F     -2.9450974722     3.1706077169     0.1707366302
 H     -4.6243301072     0.2073241253    -5.3262380584
 F     -4.3082305059     0.6209083660    -4.5713088446
 H     -3.4028502460     2.3899013070    -1.2040820305
 F     -3.7072426562     1.9925482687    -1.9724210335
 H     -1.8248400168     3.2857939889    -3.6611623878
 F     -1.3066124052     3.6741091853    -3.0119009222
