          22
Energy: -87.17564128191778 Kcal/mole
 H     -2.9339715084     6.2314521124    -4.5963194493
 F     -2.2019026526     6.1940649012    -4.0453508596
 H     -1.9389736919     4.7732983352    -3.2311240400
 F     -1.8770640972     3.9346475766    -2.8654450725
 H     -3.2775274247    -3.2381600927    -6.6180068732
 F     -3.5910152051    -2.5973620234    -7.1941945561
 H     -4.7002833446     5.2038140210    -5.3955831952
 F     -4.2950489324     6.0156278243    -5.5283703178
 H     -2.4014288415     2.6242106438    -3.7310113627
 F     -2.6747202432     1.9099924208    -4.2370678216
 H     -2.5923020554    -1.7535062590    -3.3205823508
 F     -3.0490924907    -2.5484420507    -3.3381489461
 H     -3.5849375871    -1.1641870814    -6.4126950425
 F     -3.5409958492    -0.4202283817    -5.8783884106
 H     -4.2541957710     1.0103243407    -6.3814843553
 F     -4.6849797078     1.7630240312    -6.6794061163
 H     -2.0764373922     0.4292895746    -3.7142595020
 F     -1.7271969878    -0.3355689895    -3.3483202766
 H     -5.0180203318     2.9716629333    -5.5985764351
 F     -5.2019948597     3.6686989168    -5.0318461547
 H     -2.8087636493    -3.6474384017    -4.5578184097
 F     -2.7111053160    -4.1217326014    -5.3365332882
