          6
Energy: -2.597989564711204 Kcal/mole
 Xe     1.7554551726    12.1486988536    17.2905408739
 Xe   -39.7448121968    28.2918661641    18.7392590626
 Xe   -37.0531281728    26.2999517125    15.8589695864
 Xe     0.8519282742     9.5767937523    20.7658381962
 Xe   -37.5615782932    24.6390310450    19.9222847032
 Xe     4.2754944888    12.3573943254    20.9146769434
