          6
Energy: -1.682743276054286E-5 Kcal/mole
 Xe    25.2809878834   -30.0657246712   -31.4780973097
 Xe   -12.0710151898    -8.9846303194    14.1252048157
 Xe    40.5304698034   -10.5944216173   -10.9178631321
 Xe    -6.2444395339    35.8704567957     5.1187132710
 Xe    -8.4293912014    17.3886707134   -36.8268354780
 Xe    28.5320004670     9.4307493651   -34.5070251835
          6
Energy: -4.6422099253408075E-5 Kcal/mole
 Xe     9.1195321999   -38.6810682938   -36.7757977103
 Xe     8.1599269100   -35.9160286888    33.7933278284
 Xe    19.5031402109   -11.0664120778    20.6287557349
 Xe   -20.3196541227     2.6458857478    -7.4273088533
 Xe   -19.3386423579    14.4098900919   -28.6699928610
 Xe    38.3755822403    11.1654303247     6.5949035439
          6
Energy: -1.6859521367647163E-4 Kcal/mole
 Xe    33.5322757358   -22.8762109405   -36.8893832037
 Xe    41.2799869591   -33.9343060858    34.5113443837
 Xe   -19.6278052233    33.7039614486    28.7575974308
 Xe   -12.3391963441    17.7775819022    35.9073898400
 Xe    -6.8137711884   -13.1983644124     0.7105343359
 Xe    19.7500550776    -2.0472488606   -36.5690402178
          6
Energy: -6.8662129715933035E-6 Kcal/mole
 Xe    25.7128377947   -28.5563091574   -37.4691557728
 Xe    37.1978411441     2.5242412710     9.2222951453
 Xe   -10.1183543350    37.9937352573    35.5840447800
 Xe   -24.8431211620   -10.9138881651    12.8857509829
 Xe   -16.2491623992    13.0591149530   -23.4537780473
 Xe     8.8773438179   -27.0631811661    -4.1080405940
          6
Energy: -6.246201096950494E-5 Kcal/mole
 Xe    23.0629074640   -20.3458312431   -26.8602713474
 Xe   -29.9773615730   -16.4843808039    40.2939391004
 Xe    24.1781712078    39.2293742302    22.1064434210
 Xe   -25.8872934084   -26.9348229396   -20.0404177514
 Xe   -22.6147881711    33.9688672877   -14.4086022200
 Xe   -38.7487353842   -25.9262800491    -2.5123629637
          6
Energy: -2.1486902234862462E-4 Kcal/mole
 Xe    37.6358573649    18.5106026144   -39.7743584779
 Xe    -8.7604731521    31.3850158104    11.7815050947
 Xe     6.3793055016    28.5630297015    20.7309563074
 Xe   -10.7912615833   -30.0631222797   -26.6999906094
 Xe   -35.7132371316    28.9544711442   -13.8623830077
 Xe   -39.1674579836   -36.4129789954   -24.4190627060
          6
Energy: -2.42501273696696E-4 Kcal/mole
 Xe    27.1760438214    13.6560445263   -22.2233384486
 Xe    10.5885303610    -2.2738176770    -4.5640358877
 Xe   -13.2648203981    39.0714943674    18.7873552228
 Xe    13.5659777955   -27.7866400549   -31.1168367013
 Xe   -33.8268161650     8.1357011357   -30.8225108415
 Xe    14.6287443127   -10.1634460379   -32.8287710285
          6
Energy: -2.3579158133355834E-4 Kcal/mole
 Xe    35.5002207167    35.7676319117   -20.1222330807
 Xe   -23.8879674149    10.2427636387   -24.1862367822
 Xe   -14.0860499055    25.9642410091    25.5713387503
 Xe   -34.1901046792    13.4202882781    -9.3139563804
 Xe   -14.9369992117    39.7357208624     8.9436297286
 Xe    13.5526107102   -32.7833693047   -23.5281393907
          6
Energy: -0.4235200179910067 Kcal/mole
 Xe    34.5341221315    40.8152227929   -27.3830155844
 Xe   -39.3411390105    26.8983617183   -34.1266001074
 Xe   -36.5759545833    25.9202378732    15.9176070923
 Xe    -4.2459805066   -15.4061884093    27.5194637688
 Xe   -37.6917597881    22.7608129753    18.9756820872
 Xe     6.8684220904    22.2034751135    19.8923120267
          6
Energy: -2.597989564711204 Kcal/mole
 Xe     1.7554551726    12.1486988536    17.2905408739
 Xe   -39.7448121968    28.2918661641    18.7392590626
 Xe   -37.0531281728    26.2999517125    15.8589695864
 Xe     0.8519282742     9.5767937523    20.7658381962
 Xe   -37.5615782932    24.6390310450    19.9222847032
 Xe     4.2754944888    12.3573943254    20.9146769434
