          6
Energy: -0.0014635086660224935 Kcal/mole
 Xe    -7.7401486047    30.2894399086     3.4123661969
 Xe   -24.8888525110    39.2444861442    38.0643434972
 Xe     8.7190963481    27.5532403188    37.3150700650
 Xe   -14.4307850478   -25.8621593277   -11.0331924481
 Xe   -19.1378306044    31.6207287584    -7.4148996429
 Xe   -20.1394751199    34.1956058995     9.3244090425
          6
Energy: -5.0900405117004996E-5 Kcal/mole
 Xe   -15.7602988606   -11.2396251403    29.1903888882
 Xe    24.2014882345    32.9934960669    36.5976179006
 Xe    40.2152751258    38.0259170998    19.7470843143
 Xe   -26.8134398546    -2.7202101392   -35.0840277860
 Xe   -29.0880934666    27.1926370088   -39.6646326064
 Xe   -30.5601695696     3.1800321011     1.7775720902
          6
Energy: -1.3105707549096131E-5 Kcal/mole
 Xe   -35.4641553007   -28.9044661570    33.7672451239
 Xe    32.4021344204    17.1899311858   -36.7911660238
 Xe    39.3679943497    32.0097846526    13.1058917106
 Xe   -31.5759872412   -21.6838549376     5.6134363383
 Xe   -40.0372648804     5.5965203205   -30.8956102487
 Xe    -1.2183074209    19.3912463127     6.9815045133
          6
Energy: -4.6719991941623395E-6 Kcal/mole
 Xe   -39.5268367946   -17.5832192522    30.7743719749
 Xe    18.0926597648    -7.3426506478   -25.5408507750
 Xe    32.9598919668    37.8739811133    22.0471911521
 Xe   -12.4796090067   -17.9802793576    -6.1689440746
 Xe   -36.2015494052    28.4383022805   -21.3285082219
 Xe    18.2769315423    40.0325306801   -26.9908078706
          6
Energy: -0.04213744094378865 Kcal/mole
 Xe    -2.8212200402   -25.4502810087    -7.4486750720
 Xe    14.9332311008    23.5771761335   -32.1247539466
 Xe     8.4096405622    22.5120047407    -3.2377009748
 Xe    -7.5397355863    -3.9485114152    -9.6899827622
 Xe   -33.5880485257    36.1639213027    12.8203516143
 Xe    19.9017866694    28.7823001529   -31.0088952711
          6
Energy: -3.927252005507906E-5 Kcal/mole
 Xe   -26.9022334969   -18.2407621678    40.7186195484
 Xe    37.6632697373    41.1568182775   -41.1439134896
 Xe     4.9247099901    19.2651728643    -9.7462636382
 Xe    36.1984476337   -19.6435332245    19.2042530402
 Xe    -2.5023234120    11.8753958482    27.1640948499
 Xe    13.7151473543    20.2744827090   -32.6193745316
          6
Energy: -2.5260950341850214E-4 Kcal/mole
 Xe     6.6585590966   -39.6148948804     2.7579133598
 Xe   -16.1820571649    36.9495511650     5.6925457171
 Xe    28.9212459156    29.6564032613    -8.0057560466
 Xe    21.3378315687   -22.2833009620    10.4655112614
 Xe   -13.6417905358    17.7632150638    33.8753033269
 Xe    17.2012376570   -14.9118379575    -5.2456469765
          6
Energy: -0.004969381343444801 Kcal/mole
 Xe    -6.1254596327   -40.6585441805     8.7428962745
 Xe   -30.7327668444    15.3369058502    35.3898103433
 Xe    36.0933426052   -18.7757086828   -26.2386389109
 Xe    24.5253689584    -0.9256813233    25.4068477700
 Xe    19.4125216986    10.8517078829    37.3583506271
 Xe    25.2404917065   -10.8498130318    21.9899588584
          6
Energy: -0.8596043820597614 Kcal/mole
 Xe     9.3436571906   -39.1976937320    -6.0176206260
 Xe   -16.6108765064    29.7167778933    35.6076157745
 Xe     5.1168781627   -40.4272291954    -5.3388436788
 Xe    23.5794702013    -5.7799308889    37.6390922242
 Xe    24.7850774682    19.4252132404     6.3648547354
 Xe    27.8755309757    -6.1032584792    37.1156462034
          6
Energy: -3.030552223565433 Kcal/mole
 Xe     9.3262681202   -39.0659305468    -5.7452787145
 Xe    25.0204156884     0.9151205057    33.4555803584
 Xe     5.2621179329   -40.7045394262    -5.1912639234
 Xe    23.8524860275    -2.0453246857    36.5177991074
 Xe    25.6961760477    -3.3930870982    32.7269088988
 Xe    28.1077880485    -1.2440152395    35.7498060973
