          6
Energy: -3.030552223565433 Kcal/mole
 Xe     9.3262681202   -39.0659305468    -5.7452787145
 Xe    25.0204156884     0.9151205057    33.4555803584
 Xe     5.2621179329   -40.7045394262    -5.1912639234
 Xe    23.8524860275    -2.0453246857    36.5177991074
 Xe    25.6961760477    -3.3930870982    32.7269088988
 Xe    28.1077880485    -1.2440152395    35.7498060973
