          6
Energy: -2.597927980212225 Kcal/mole
 Xe     3.7933025034    -9.0875164747    40.9583662666
 Xe     2.8174439962    -7.2428354008    37.0692381673
 Xe     5.7373863216   -10.5591931261    37.2797415627
 Xe    -8.8920906705    30.0587713856   -33.0949743625
 Xe    -4.8409747177    31.5186142132   -34.0598585080
 Xe    -7.7045242131    30.6378952524   -37.3079393218
