          3
Energy: -0.18068735252076087 Kcal/mole
 Ar    -2.9830607158     0.8918604571     1.9401547209
 Ar    -1.2712277889     0.0709925276    -0.9547576105
 Ar    -1.1287080213     3.0037267862     6.0150803805
          3
Energy: -0.19681126541902041 Kcal/mole
 Ar    -0.9286355893     5.6192836184    -5.4074576793
 Ar     1.5215189071    -0.5336993322     7.3467556092
 Ar    -1.4154173973    -3.4743956631     7.3841878946
          3
Energy: -0.0035527256341848284 Kcal/mole
 Ar    -1.5410212103     5.8855006458     3.3603583438
 Ar     7.0297783150     4.4961678609     2.9101032143
 Ar    -1.4313641969    -4.7757324388    -7.1396613521
          3
Energy: -0.0036856805042665064 Kcal/mole
 Ar     7.2983201596    -5.9583504129     5.8064582780
 Ar     5.1723468654    -0.8376995676    -2.1907405372
 Ar    -3.4085470221     2.0807088582     1.0754967764
          3
Energy: -0.008625154502476617 Kcal/mole
 Ar    -3.9540588192    -6.6689234897    -6.5382651901
 Ar    -0.7331761378    -1.6908969995    -0.3166553154
 Ar    -6.0977094466    -5.2806643377     4.8660114394
          3
Energy: -0.1147517900737993 Kcal/mole
 Ar    -5.1706817618     0.1221593810     1.8530320907
 Ar    -4.3918740568     4.3155195396     3.8750623294
 Ar     4.9307361209     4.3130924081     0.0180987100
          3
Energy: -0.15440942744569497 Kcal/mole
 Ar    -2.0051274529    -1.2826825642     0.2224603649
 Ar     0.7267266177     0.0430298412     3.5835323784
 Ar     0.0847874260    -3.2275436004     3.8792140372
          3
Energy: -0.6527198350253949 Kcal/mole
 Ar     0.1232501953     5.9832150704     3.4872164163
 Ar    -2.0006891642     4.4156523667     0.2978119440
 Ar     1.5941785153     5.3049202177    -0.1214212286
          3
Energy: -0.6901865678478143 Kcal/mole
 Ar     4.1848328867    -3.5110014383     0.7328020955
 Ar     2.7972005218    -5.4378223406     3.6979686162
 Ar     1.8251583691    -6.3117346568    -0.0211204836
          3
Energy: -0.7016955027873253 Kcal/mole
 Ar     4.0585283504    -3.3950412435     0.7692473052
 Ar     2.6645921974    -5.3274600172     3.7518554157
 Ar     1.4990705434    -6.1768038720     0.2186422308
