          3
Energy: -0.01762254159626757 Kcal/mole
 Ar    -2.4311114752     6.1147814855     5.6407952236
 Ar     1.5665203769    -5.0850137396     5.6875311953
 Ar    -2.3678286588     1.7014525569     0.5282957429
          3
Energy: -0.0030009062098840804 Kcal/mole
 Ar     1.9500645883    -3.4448912499    -4.6173087193
 Ar    -2.7713013533     5.1238717686    -5.6475878819
 Ar     7.2221656597    -2.3029551523     3.9971511839
          3
Energy: -0.006479511137467265 Kcal/mole
 Ar    -5.4031341585    -6.3916210830     2.0052188898
 Ar    -7.2032344380    -0.6804985364    -4.8567019850
 Ar     1.4292330042    -0.6521477865    -5.6449644785
          3
Energy: -0.20919050176309162 Kcal/mole
 Ar    -5.5114500272     5.4600759335     7.0989031699
 Ar    -5.7905569114    -5.0577039205     2.5206734899
 Ar    -2.7447534240     5.2445884427     4.0999304966
          3
Energy: -0.3036775400430958 Kcal/mole
 Ar     0.9325186182    -2.2851457632     0.3386873535
 Ar    -0.8581633219    -2.8536212976    -4.5785306557
 Ar     4.5913993704    -2.8910159685    -0.0854685908
          3
Energy: -0.043004139751868245 Kcal/mole
 Ar     2.4863214978     2.0181399084    -1.8369925241
 Ar     3.8254529341    -6.6909613844     1.1095619874
 Ar     6.0095374717     0.5916424394     2.6325306816
          3
Energy: -0.6148014680513088 Kcal/mole
 Ar     7.1917172135     3.0898435741     6.4789987836
 Ar     7.3236487797     3.0741989709     2.0967379136
 Ar     4.9095167459     1.1945247899     4.2616273268
          3
Energy: -0.5548980738845145 Kcal/mole
 Ar    -2.0831419001     6.5729756432    -6.6351650673
 Ar    -2.7219219434     4.4356443651    -3.6508179304
 Ar    -3.9633422274     2.0559422298    -6.3592890380
          3
Energy: -0.5389365748661933 Kcal/mole
 Ar     4.8221330800    -0.2671742070    -0.8673239968
 Ar     4.2224688128     4.5310106484    -0.0243440439
 Ar     6.4590818905     1.7489551775     1.8104004947
          3
Energy: -0.7016971851195006 Kcal/mole
 Ar     5.1881117561     0.3635748157    -1.3878598930
 Ar     3.9932845705     3.7705538524    -0.1527404040
 Ar     6.5003855166     1.7625303240     1.9112108046
