          3
Energy: -0.21708911383847337 Kcal/mole
 Ar    -3.6590696977    -5.0582335613     5.9414594047
 Ar    -1.9828774395     1.6933293577    -6.0859098465
 Ar    -6.3751807537    -2.2908489462     4.8598698075
          3
Energy: -0.0011931054088879815 Kcal/mole
 Ar    -1.9233652108     6.5465001217     6.5038967887
 Ar     5.1942005509     6.6957295040    -4.8590082948
 Ar    -2.4145760848    -3.2586088465     1.1701927480
          3
Energy: -9.684721793061571E-4 Kcal/mole
 Ar     5.4411991638     0.3761724138     0.8835744121
 Ar    -5.3995533355     6.2252395785     7.0957651340
 Ar    -4.9561644036     7.3439876025    -4.6368865484
          3
Energy: -0.01223204648837569 Kcal/mole
 Ar     3.7640253189     2.3552229451    -6.5386809804
 Ar    -3.1117464144    -1.9810350060    -5.5493752535
 Ar    -0.3149717521     0.9762837584     1.5012915464
          3
Energy: -0.23260092628551507 Kcal/mole
 Ar     4.2203275728    -0.8800228079    -4.0896466488
 Ar    -7.0532231308     1.9013965651    -2.5694019625
 Ar     6.5995866337    -3.1792466152    -5.8794971357
          3
Energy: -0.15544933396659225 Kcal/mole
 Ar    -3.4826119834    -3.2575248979     6.6913885671
 Ar    -4.8234244363    -6.1863751664     5.2608619081
 Ar     3.6238721072    -4.0853611863     3.8153427638
          3
Energy: -0.2079199017751138 Kcal/mole
 Ar     0.4184528113    -5.3499540414     4.0750575205
 Ar     3.9340856800    -4.0997649302     5.7660444227
 Ar    -1.1814329294    -1.3080856651    -4.9329410761
          3
Energy: -0.6627190223925336 Kcal/mole
 Ar     2.9150545917    -3.5426626784     1.7203735584
 Ar     2.7295009678    -2.5618613319     5.3519670806
 Ar     6.0680871130    -1.6533884912     3.6491832196
          3
Energy: -0.656254342350751 Kcal/mole
 Ar    -4.6346690655     0.8798729063     0.5516675834
 Ar    -2.9303810059     4.0765417304    -0.5161711477
 Ar    -5.8138697597     4.6871659794     1.8649383857
          3
Energy: -0.7016964837303885 Kcal/mole
 Ar    -4.5922506792     1.1341956313     0.8317253221
 Ar    -2.9391619810     4.2179017227    -0.6946338554
 Ar    -6.0610545310     4.5972997330     1.4727822071
