          3
Energy: -0.0027027192385010693 Kcal/mole
 Ar     1.7195385687    -4.1198471624    -5.9568121383
 Ar    -1.4534303117     5.5038092363    -4.7257107561
 Ar    -4.2589230822     0.6230474214     4.1482965680
          3
Energy: -0.025385992043314133 Kcal/mole
 Ar     0.0022418405    -1.4366467437     3.3904432061
 Ar    -6.0943816964     4.5836133077    -1.7319338022
 Ar    -5.2142710837     1.6788511106    -7.2043785899
          3
Energy: -0.0028117718083149816 Kcal/mole
 Ar    -4.3118536318     2.0832335756     0.5232292947
 Ar    -0.6050767134    -5.4447258247     5.2070268751
 Ar     7.2169525235    -1.9410192053    -2.5204425846
          3
Energy: -0.198176140190084 Kcal/mole
 Ar     1.9770879417    -7.4891947850    -6.5263337972
 Ar    -0.3536686295    -4.8791347273    -7.4048558016
 Ar     7.4957749808    -5.1089304655     1.0923499013
          3
Energy: -0.06344624777244316 Kcal/mole
 Ar     3.0018878162     2.9460119614    -6.6278019507
 Ar     2.0514214263     6.2908728598     0.6031291097
 Ar     5.6076725131     2.0313890897    -0.6208171822
          3
Energy: -0.1826039883237217 Kcal/mole
 Ar     0.6447334115     7.1359710298     5.1632742886
 Ar     4.6268071192     5.7535880733     5.6532485446
 Ar    -5.9428905964    -1.7537972854    -2.3055444596
          3
Energy: -0.6498824844379572 Kcal/mole
 Ar    -2.4600800310     0.2690738075     3.3188064030
 Ar    -1.6232156441     2.7355325221     6.3194889189
 Ar    -1.8015134328    -1.2684695312     6.9878770042
          3
Energy: -0.5106405143230941 Kcal/mole
 Ar    -2.9794406879     2.4795606315     4.2336914223
 Ar    -7.0283339068     1.9331394572     3.5802441332
 Ar    -3.3993837491    -1.1023495450     3.9143693676
          3
Energy: -0.660829560572026 Kcal/mole
 Ar    -5.5459465620     3.1173738530     5.3729784272
 Ar    -2.9763502739     1.3166136669     3.1091878744
 Ar    -3.8178377050     4.7795620419     2.5055304670
          3
Energy: -0.701693905718159 Kcal/mole
 Ar    -5.4658703423     3.1285360884     5.4669976292
 Ar    -3.0305167329     1.3811565621     3.1019318121
 Ar    -3.4080423210     5.1801948500     2.9953742005
