          6
Energy: -0.8768464728247358 Kcal/mole
 Ne    -4.4021410220    -0.5528610402     3.5650916083
 Ne    -1.6592301914     0.9241486341     3.6565409836
 Ne    -5.8741775162     2.1479407011     3.9936581211
 Ne    -3.1235971406     3.6259722361     4.1159626700
 Ne    -3.8408723360     1.8372528020     1.6709413862
 Ne    -3.6906170808     1.2245333729     5.9985048541
