          6
Energy: -0.8486241742229006 Kcal/mole
 Ne     3.0570811329     0.5312585616    -4.6523663400
 Ne     2.2547287565    -0.8590338269    -1.9900216723
 Ne     0.8215233518    -3.5172690796    -2.6387818645
 Ne     3.1536369383    -2.5657473536    -4.4542264077
 Ne     0.6408858861     1.5886516872    -2.9960229438
 Ne     0.4072894464    -1.0879435175    -4.5257404520
