          6
Energy: -0.8483997270395235 Kcal/mole
 Ne     0.5923628155    -0.5919288083     0.4620054181
 Ne    -0.8897427312    -2.7749739986     2.0809604451
 Ne     1.4923432623    -3.5565059064     0.2226103980
 Ne     1.9999524646    -2.0033319911     2.8761247452
 Ne     2.6847826964     0.9391646062     2.2093148654
 Ne     3.6340811461    -1.3089152007     0.2966779158
