          6
Energy: -0.05307389569842222 Kcal/mole
 Ne    -3.7696324563    -3.0338086297    -5.7458786532
 Ne    -0.8778351506    -5.4380447068     6.0037456106
 Ne    -3.3937545102     5.2144871164     1.0369982633
 Ne     0.9492847166    -1.9687029147    -1.8451189985
 Ne     0.1529604166     5.1583270655     1.7026983740
 Ne    -3.6744470450     2.9536447823     6.7826655769
          6
Energy: -0.04701175590501189 Kcal/mole
 Ne    -2.6040132440     1.8457759422     3.6036858631
 Ne     3.6336039601    -1.0319400909     5.0736375280
 Ne    -6.1598206638    -0.8066737308     0.4123694543
 Ne     1.8383245093    -2.9408093903     6.1478220675
 Ne    -5.3098927834    -2.4929576267    -6.0370378719
 Ne    -0.7266309199     0.5157530209    -0.9252637012
          6
Energy: -0.08210519729223345 Kcal/mole
 Ne     0.4527626961    -3.2953267383    -0.4564310659
 Ne    -5.7918658676     5.7627784517     4.8303770017
 Ne     3.6698634458    -1.9734907037    -3.2763703366
 Ne     6.3573027545    -3.6204977889    -4.9455080053
 Ne    -2.2626096252     0.4692195766     0.6254746334
 Ne    -2.4289972351    -6.6970395692    -3.4193842997
          6
Energy: -0.07121890340130083 Kcal/mole
 Ne     3.7137570201    -7.1575054963     3.9738093442
 Ne    -0.9420336098     1.4130342410    -4.6007592816
 Ne     6.5337012672    -4.5069800219     0.8146012959
 Ne    -1.8810558793     3.3627221645     5.8586698501
 Ne    -5.2418190736     2.9162957356     5.4736639139
 Ne    -0.5981968618    -3.8866125261    -5.0551423117
          6
Energy: -0.04014793013787597 Kcal/mole
 Ne    -2.8031082866    -3.9283071737     0.6905473220
 Ne     6.7916299195     5.0012368568     5.0406668579
 Ne    -5.5273289640     6.8067695629    -1.2940110769
 Ne    -7.4651837432    -2.2101706713     3.1969368104
 Ne    -3.6064196556    -4.2668157283     6.4333009413
 Ne    -7.2435034221     6.6032084987    -4.9049713863
          6
Energy: -0.006244776313047976 Kcal/mole
 Ne    -3.0301223630    -5.1579046535     3.8576975883
 Ne    -1.2394276237     5.4449857330     4.2865956786
 Ne    -5.6016255609    -0.4696090392     1.7753810101
 Ne    -7.0427171654     7.0882236727    -2.1486289945
 Ne    -6.9261452136     0.9189723929    -6.8373216590
 Ne     4.6521688320    -6.7310211932     2.3576129135
          6
Energy: -0.11317257624210761 Kcal/mole
 Ne     2.0366718766     7.2333072723     3.8199847310
 Ne     6.0462913652    -5.9134460877    -0.0532046903
 Ne     2.8781113398    -4.1615337129     2.5008465308
 Ne    -5.3692180280     5.7025525637    -6.5853045289
 Ne     3.7586840155    -3.5725593811    -1.6381632300
 Ne     3.0834783639    -0.0934357614     1.7493855933
          6
Energy: -0.3446171007289005 Kcal/mole
 Ne    -2.1519654729     3.3814312765     3.3329099849
 Ne     2.2904660501     2.2254222167     1.9422329312
 Ne     0.4578673528     2.3870802093     5.3547950812
 Ne     0.8726756808     5.3735803296    -2.9085704135
 Ne     1.2624274288     6.4582941411     0.8142581622
 Ne    -0.6235983893     4.2372780129     0.5199913812
          6
Energy: -0.7374152284572378 Kcal/mole
 Ne    -4.5323395771    -0.4037986111     3.6479733807
 Ne    -1.5192297057     0.8828661012     4.0776792129
 Ne    -5.7793833915     2.0586760125     4.3283123039
 Ne    -3.1610833957     3.9428229885     3.8917062723
 Ne    -3.7443311642     1.8703747753     1.5815275216
 Ne    -3.4991269620     1.1993597266     6.2486540220
          6
Energy: -0.8768464728247358 Kcal/mole
 Ne    -4.4021410220    -0.5528610402     3.5650916083
 Ne    -1.6592301914     0.9241486341     3.6565409836
 Ne    -5.8741775162     2.1479407011     3.9936581211
 Ne    -3.1235971406     3.6259722361     4.1159626700
 Ne    -3.8408723360     1.8372528020     1.6709413862
 Ne    -3.6906170808     1.2245333729     5.9985048541
