          6
Energy: -0.016963723722083806 Kcal/mole
 Ne     0.7786491603     3.0392098280    -3.4616009923
 Ne     6.7492374350     2.5603522749    -3.6041670918
 Ne    -2.0840631170     5.5546752148     4.3271209388
 Ne     5.1440551908     4.3362268300     3.1320997585
 Ne     2.5296034019    -0.8728670858     6.2808880720
 Ne    -1.2393319948    -0.4059957605    -6.2412829138
          6
Energy: -0.013233628596510966 Kcal/mole
 Ne     5.2099983722    -0.7720518737    -6.9531030089
 Ne     5.4257875077     5.5037273499    -0.1841576105
 Ne    -1.1153249859     5.3500102219    -4.5479128516
 Ne    -2.4919650742     3.4136629924     3.2143252095
 Ne    -7.2286556085     4.4249292135     2.9118521495
 Ne     1.8984002532     0.5145276046     7.0646693648
          6
Energy: -0.08351312937104426 Kcal/mole
 Ne    -5.9897374480    -0.8728554991    -4.0091464125
 Ne    -6.8865946191    -1.9446932177     3.9655429060
 Ne     5.8054505860     5.9117722062     2.5673865220
 Ne     6.3154813687     4.2390990393     5.0426003047
 Ne     6.2834751967    -0.6095376029     3.3793646114
 Ne     2.3832460834     4.0264398125    -0.8806900685
          6
Energy: -0.07555561987755878 Kcal/mole
 Ne    -1.0903862501     6.6787129985    -2.6838913168
 Ne     1.4842981028     7.2624242230     3.2068232524
 Ne     6.7355862201    -1.6214287115     6.0306029708
 Ne    -2.6797215568     4.6325238450     0.4929034243
 Ne     4.3145315742     1.5387292630    -2.6367129673
 Ne     5.9670873739     1.9476915738     5.7215391332
          6
Energy: -0.029164709918974407 Kcal/mole
 Ne    -3.3522008332     6.7369071181     0.5938642513
 Ne    -2.8467038965     5.3086452364    -6.7862463287
 Ne     0.8112230761     3.4398617036    -7.0793133694
 Ne    -4.5492319590    -4.7205772838    -0.2850718830
 Ne     3.3856453161     2.8732687646     6.2274547895
 Ne     0.6550911651    -2.2848114689    -0.3095277917
          6
Energy: -0.018135959385002322 Kcal/mole
 Ne     0.7334916040    -3.9570338339     7.0476320824
 Ne     0.4127984181     3.0351766677     6.2939265359
 Ne     2.1524970635    -5.9371670952    -1.6501739321
 Ne    -6.9577130960    -3.6320849890    -4.4361144619
 Ne    -2.9394593579    -2.0202544338    -3.1624997354
 Ne    -5.9711124850     5.3116019626     1.4191361157
          6
Energy: -0.020707524294824912 Kcal/mole
 Ne     0.0462908615     1.6445304911    -5.9596108439
 Ne     1.5261177012     1.9653688491     6.9879650329
 Ne    -7.4527432370    -1.4769379983     3.7038099433
 Ne    -3.5519437079    -4.3932871301    -4.6390585477
 Ne    -2.2299110734     4.5581661949    -1.7738382159
 Ne     1.6446541075     6.3274648135    -4.2352849797
          6
Energy: -0.12417495582858801 Kcal/mole
 Ne     0.2424710853     0.2356496479     2.4355330290
 Ne     5.2404058844    -1.1441818188     2.4468650074
 Ne    -6.6320819642     4.7173987814     0.3138591557
 Ne     7.1256281803    -6.5185120373     7.0061395178
 Ne     6.5803028573    -4.9793826659     3.2275149408
 Ne     3.7420220880    -4.6266266339     5.7438111467
          6
Energy: -0.4051489795949687 Kcal/mole
 Ne    -0.8986738159    -1.7397656683     0.0872680736
 Ne     1.9304494722    -2.7297843292     1.8272618757
 Ne     1.6098846535    -5.3984217543     3.4179633619
 Ne     4.2401556867    -2.6053569886    -0.2067889822
 Ne     0.4109345784    -0.5770185752     3.5572566674
 Ne     5.2545277318     0.2499999516     0.3067465632
          6
Energy: -0.8483715612265657 Kcal/mole
 Ne     1.3162974231    -1.1300872697    -0.1615770070
 Ne     2.8789840212    -2.5787184701     2.1858849251
 Ne     0.8076312795    -4.1271412587     0.4600886045
 Ne     3.5249805655    -3.2107770231    -0.8034897603
 Ne     2.0679221501     0.3869599519     2.4478700269
 Ne     4.3072539798    -0.4377031930     0.4110231009
