          4
Energy: -0.006584687887401044 Kcal/mole
 He     3.7909360600     3.1358668154    -0.5901622619
 He     6.2169472522     3.9619125629    -3.4400890963
 He     2.7192389948    -0.2936764393     5.9987627338
 He     1.2171942939    -5.2897045160    -6.9122884362
          4
Energy: -7.131108185579285E-4 Kcal/mole
 He    -6.9341254613    -3.2945479144    -6.7737280851
 He     0.7406983813     4.6710316135     4.5595232216
 He     6.4277323802     5.8151412225     4.3342205337
 He    -4.2688592589    -0.9723517402     4.7915459342
          4
Energy: -0.008500180395043026 Kcal/mole
 He    -6.4446474582     3.5940071362     3.2371576702
 He    -6.6121969415     1.7247452357    -5.6569866734
 He     3.2780112349     2.2228605918     5.5662278666
 He    -4.8693345888    -1.4718040622    -5.7470359142
          4
Energy: -0.01864495658801769 Kcal/mole
 He     2.2356275638     2.8823939598     6.6644159844
 He    -5.8587269610    -2.1754408729    -3.7695457405
 He     4.7221694730     0.5782464603     5.8506589448
 He     5.0571733786     5.1965554989     5.3508277887
          4
Energy: -4.4207309316950805E-4 Kcal/mole
 He    -4.8656599496     7.4409549072    -6.4127267959
 He    -2.9482279679    -4.8443393743    -0.5054336707
 He     3.2265803940     0.7478806166     4.2882857711
 He    -7.3927447430    -0.4819966213    -0.7449302543
          4
Energy: -0.0013846317523066908 Kcal/mole
 He    -0.3703514170     4.5706160780     1.7352023958
 He    -0.7875452918    -0.0541312816    -6.9949958355
 He    -1.0260829807    -3.0342956419    -2.2105857822
 He    -2.7653950595    -3.2975214095     3.3862121412
          4
Energy: -7.368962256889483E-4 Kcal/mole
 He     1.5148903958     7.1366678050    -1.1732624624
 He    -6.1308780984     1.0806839198     6.8578038766
 He    -4.2065935418    -1.7747817157     2.3366286703
 He     4.3398686135     0.3796776836    -5.7191987297
          4
Energy: -0.011559207193695117 Kcal/mole
 He    -3.4382423799     3.4044626654    -0.2244469013
 He     4.5453188404    -4.5135417273    -1.0727486377
 He     1.4301371408     1.5089983265     1.2943392255
 He    -2.8171774755     6.7940168758     0.3800273169
          4
Energy: -0.0017664410687620446 Kcal/mole
 He     1.2252086461     0.0456091861    -6.8742576482
 He    -0.1930052194     2.1424668785     4.1091160548
 He     7.3730988271    -4.8981495332    -6.8025344454
 He    -1.4318657687     0.6507123000    -2.7353310872
          4
Energy: -0.1199635410313267 Kcal/mole
 He     2.0262417841     1.4711198979    -6.0555988620
 He     3.5356898912     2.1047210233    -3.7017855156
 He     3.0397028503    -0.6419039468    -4.3888887047
 He     0.9005289181     1.0241391246    -3.4372544979
