          4
Energy: -0.002346327035984536 Kcal/mole
 He    -3.8477121385    -0.0560562454     6.2031675102
 He     4.9774729656    -4.7266290161    -1.9365787719
 He    -0.7243460766     6.8685999071     3.2112516177
 He    -7.4076286761    -1.1474909118     3.4769607412
          4
Energy: -0.0014367244275616529 Kcal/mole
 He    -6.4358865883    -1.9178835219    -4.3824268353
 He    -3.5241639091     3.6607398674     2.9651865461
 He    -2.0134235606     0.1780391893    -1.1447311694
 He     2.6445964899    -5.4699793226    -3.1738662379
          4
Energy: -0.020800397059751997 Kcal/mole
 He     4.7814199554     2.1840628155    -1.3434366728
 He     2.2242983590     2.5548750993    -2.8349296702
 He    -1.6700961238    -3.4955522256    -6.9481292982
 He     4.6775151352    -2.8573239434    -3.0813868622
          4
Energy: -1.5067115603733042E-4 Kcal/mole
 He     3.9430929992    -0.6138258543     6.2104988769
 He     4.1340095626    -6.9382111375     2.1767966558
 He    -7.2017711408     0.6631462656    -3.5954403198
 He     2.1110411584     6.6661789803    -3.1127115483
          4
Energy: -9.407086280896285E-4 Kcal/mole
 He    -1.3911773119     4.4009821521    -4.5182732994
 He    -6.8426493078     1.3792309500     4.3923041572
 He    -4.9866663789     6.3338080279     0.5066179450
 He    -6.5764077454     1.3874316945    -6.9878703395
          4
Energy: -3.5985913474064645E-4 Kcal/mole
 He    -3.1453231961     4.1560068704     1.1828107723
 He     2.7538254057    -2.4293060686     5.8764543377
 He    -5.8455850116    -0.5739164936     5.1638548887
 He     4.5597382636     2.6040531043    -3.5297232755
          4
Energy: -0.019624671832110106 Kcal/mole
 He     1.0549803866    -1.5000327946     3.9349590630
 He     4.2317189682     3.5653594040     4.3634096086
 He    -6.8202670403     5.4757078199    -7.1955233115
 He    -1.1880096947     0.2719276950     4.8655932619
          4
Energy: -5.93427713641875E-4 Kcal/mole
 He     3.0972705265     0.3423073010    -5.9338571764
 He    -7.4876492389    -5.0678923431     2.8202366938
 He    -4.5597562497    -6.7289621012    -3.3843628403
 He     1.6093724053     0.5848102478     0.1546926629
          4
Energy: -0.004033734871914494 Kcal/mole
 He     6.1654539608    -3.1850389156    -3.4083352249
 He    -5.8279973693    -3.6443515385    -7.4987883078
 He    -5.5610154490    -6.2737006585    -2.0835573011
 He    -1.5465416379    -3.6415938253    -6.9047352833
          4
Energy: -0.11999043409594645 Kcal/mole
 He    -1.6729998362    -7.0064180717    -4.2200638588
 He    -4.2492088098    -6.7192324662    -5.4459662638
 He    -3.5719461966    -5.1706655697    -3.1221141458
 He    -2.3263334208    -4.5979985150    -5.6397183517
