          4
Energy: -5.717920000644767 Kcal/mole
 H     -1.1963963117    -0.9152516596     2.9910244212
 F     -0.6598050167    -1.1659752694     3.6910933132
 H      0.2977727401    -2.3597191630     2.9722345337
 F      0.7895017786    -2.8782316724     2.3975726069
          4
Energy: -5.77583564452317 Kcal/mole
 H     -2.1348204382     0.8192230855     0.4579679626
 F     -2.8449945010     0.4495897171     0.0108516763
 H     -2.1385301452    -0.7674428172    -1.0349234340
 F     -1.5540954724    -1.3504249154    -1.4342440901
          4
Energy: -5.757562842400262 Kcal/mole
 H     -3.2207888779    -0.8336778657    -2.5084964203
 F     -3.4748020156    -0.9993385916    -1.6430931330
 H     -2.1070856595    -0.6031182243    -0.6760839108
 F     -1.2906809168    -0.4196252867    -0.3009804079
          4
Energy: -5.792848297647595 Kcal/mole
 H     -2.9252102451    -1.2433667280    -1.8448513378
 F     -3.5372292933    -1.4355941096    -1.1895877889
 H     -2.6781679454    -2.1202383872     0.0746831724
 F     -2.0345988728    -2.4192852929     0.6554402619
          4
Energy: -5.80145478611098 Kcal/mole
 H     -1.1179145110    -0.2694474554    -1.9209852659
 F     -1.2774126418    -1.1724619962    -1.9172322206
 H     -1.8312304349    -1.5486668734    -0.3393376563
 F     -2.0441995126    -1.5530809585     0.5525780841
          4
Energy: -5.809672305078209 Kcal/mole
 H     -2.7116538114    -2.6013428420    -1.8169670679
 F     -2.9435544932    -1.8644098749    -2.3109720029
 H     -2.8498959190    -0.6329947132    -1.1333554730
 F     -2.7642780346    -0.1367623755    -0.3669926054
          4
Energy: -5.779639249917011 Kcal/mole
 H     -3.5920509019    -2.7184144752    -2.0361780170
 F     -3.3340742992    -2.0921069566    -2.6543009534
 H     -3.1763371203    -0.5991213171    -1.7473036647
 F     -3.1668276856    -0.0069447086    -1.0472140741
          4
Energy: -5.818882889423719 Kcal/mole
 H     -3.2273829721    -2.8020012723    -2.2560558443
 F     -3.1138711472    -2.0401391122    -2.7536200258
 H     -2.6861059464    -0.8641659716    -1.5763819229
 F     -2.4479576010    -0.4357118297    -0.8013971399
          4
Energy: -5.826051264552518 Kcal/mole
 H     -3.2890498559    -2.7378751367    -2.5531955719
 F     -2.7993716950    -2.0436009685    -2.8982863980
 H     -2.7421629881    -0.9092117301    -1.6423812298
 F     -2.8610650391    -0.4640876505    -0.8495282446
          4
Energy: -5.832345622647665 Kcal/mole
 H     -3.2912899622    -2.7250239838    -2.5314975072
 F     -2.7992528626    -2.0442826925    -2.8994374302
 H     -2.7433564587    -0.8976147623    -1.6493550381
 F     -2.8466269969    -0.4482338314    -0.8567132685
