          4
Energy: -5.798914755580256 Kcal/mole
 H     -1.5826739797     1.5539051971    -2.0452166389
 F     -1.2099235003     0.8609842329    -2.5161801379
 H      0.4643506922     0.9398383240    -2.0544433222
 F      1.2323249318     1.1997686395    -1.6260267043
          4
Energy: -5.680940686201438 Kcal/mole
 H      0.2625564279    -0.3662811046    -2.2328975564
 F     -0.1365672777     0.3778791158    -1.8753855511
 H      1.3826827115     1.2145685632    -1.7566239071
 F      2.2795432201     1.3783630330    -1.8551206065
          4
Energy: -5.827019686744222 Kcal/mole
 H      0.6270754552    -0.1724653894    -2.0171864280
 F      0.3816675385     0.6548996163    -2.3272365881
 H      1.4763440599     1.7541971701    -1.6207453585
 F      2.1477348466     2.1493047540    -1.1369960343
          4
Energy: -5.822438768534596 Kcal/mole
 H     -0.7239801243     1.9394291318    -2.1507864276
 F     -0.1111695807     2.6209128688    -2.1813176222
 H      1.2990986657     1.7822550114    -1.7793373009
 F      1.8877887280     1.1219613607    -1.5377895718
          4
Energy: -5.771284486631146 Kcal/mole
 H      1.4200159340     3.7424800797    -1.5916947236
 F      1.4759199207     3.3570929232    -2.4218998090
 H      1.8690920881     1.7088855209    -2.1272478519
 F      2.1013984502     0.8737577045    -1.8281086125
          4
Energy: -5.822119832762155 Kcal/mole
 H      1.5870899115     3.1748962337    -1.7874803235
 F      1.9012099425     3.2574762050    -2.6450339105
 H      2.4679636946     1.6630034824    -2.9581322075
 F      2.6738859242     0.7748051952    -2.8602095953
          4
Energy: -5.825343666181311 Kcal/mole
 H      2.0526508574     3.5598926380    -3.5797265193
 F      2.0606282582     3.2348225597    -2.7223148298
 H      2.4020931995     1.5595249246    -2.9045061871
 F      2.5962434544     0.7307831162    -3.2456537997
          4
Energy: -5.827164262141707 Kcal/mole
 H      2.5851003399     3.5528495933    -3.2759505478
 F      2.2402193992     3.2482505757    -2.4827509668
 H      2.2931727987     1.5715695964    -2.6469107504
 F      2.4096936217     0.7072758379    -2.9302977594
          4
Energy: -5.823275812763029 Kcal/mole
 H      1.9706124520     3.4862330419    -3.1507431810
 F      2.4849277747     3.2162634885    -2.4411762785
 H      2.4596294698     1.5071151277    -2.5842142181
 F      2.2793322485     0.6460349665    -2.8429087639
          4
Energy: -5.832123292158826 Kcal/mole
 H      1.9235202447     3.4707254203    -3.1200218788
 F      2.4813901465     3.1986149089    -2.4450211068
 H      2.4493711995     1.5089086999    -2.5832573171
 F      2.2798764261     0.6459398216    -2.8429595253
