          4
Energy: -5.816270667580284 Kcal/mole
 H     -2.2782782104     0.3765434936    -0.8992535549
 F     -3.1538322568     0.2670530189    -1.1488651490
 H     -3.4505715267    -1.4168600923    -1.2644189160
 F     -3.4073523357    -2.3327998827    -1.2557354858
          4
Energy: -5.75449649432619 Kcal/mole
 H     -2.8644686365     1.1337436008    -0.4765235589
 F     -3.4271135668     0.5902078255    -0.9549465343
 H     -2.5059251113    -0.6182430488    -1.6800480915
 F     -1.8774982055    -1.2414211277    -1.9200849764
          4
Energy: -5.802940175634205 Kcal/mole
 H     -3.4329636269     1.4164369224    -3.6440097303
 F     -3.4027890754     1.2025140611    -2.7528220363
 H     -2.3319851517    -0.1160017239    -2.5639412022
 F     -1.7536731803    -0.8242997583    -2.6329206062
          4
Energy: -5.744957093324388 Kcal/mole
 H     -3.0569021966     2.1075038087    -2.8978962249
 F     -3.5790520744     1.5538034673    -2.3863647624
 H     -2.4876129483     0.2796833139    -2.0297958870
 F     -1.8033190915    -0.3194926207    -1.9130949151
          4
Energy: -5.819680503032487 Kcal/mole
 H     -3.4388047051     1.6126595164     0.0721507552
 F     -3.5858146339     1.3222887077    -0.7851484191
 H     -2.0809848812     1.5138298892    -1.4984860799
 F     -1.2050491595     1.7055838842    -1.6904652892
          4
Energy: -5.795818817153588 Kcal/mole
 H     -2.9124554717     0.3348966090    -1.5330888819
 F     -3.1826821386     0.9030977301    -2.2001826043
 H     -2.1259154864     2.2607700827    -2.0780513842
 F     -1.4844012271     2.8858771961    -1.8816091488
          4
Energy: -5.820831195922153 Kcal/mole
 H     -3.4892738562     1.1403559456     0.0129358129
 F     -3.2768397171     0.9929610792    -0.8668570547
 H     -2.8587946692     2.5037101096    -1.5053248080
 F     -2.6573328020     3.3834846006    -1.6674943523
          4
Energy: -5.809407062567857 Kcal/mole
 H     -2.7162534097     1.3627765553     0.4290977462
 F     -2.9486286913     1.1691091317    -0.4365717389
 H     -3.2585991717     2.6748486764    -1.1655213307
 F     -3.3677968253     3.5758481405    -1.2965359798
          4
Energy: -5.830537731724519 Kcal/mole
 H     -2.6078589439     1.4614943205     0.5787511698
 F     -3.0258896341     1.2508505700    -0.2097718498
 H     -3.0962403121     2.7444327062    -1.0331030000
 F     -3.0266524169     3.6236284927    -1.2842230787
          4
Energy: -5.831270597503362 Kcal/mole
 H     -2.5829218236     1.4536159472     0.5670879984
 F     -3.0272124907     1.2512684995    -0.2091531455
 H     -3.1030409303     2.7443716398    -1.0353084951
 F     -3.0262916598     3.6236317322    -1.2841060823
