          6
Energy: -2.5979624580837535 Kcal/mole
 Xe   -19.4525680065    10.7732967112   -11.6811558285
 Xe    15.3692904833   -18.4972159908    13.7352931537
 Xe   -15.4033847508    12.4591074166   -11.1443888476
 Xe   -15.9151346182     8.1219257309   -11.8091723982
 Xe    13.8634571108   -17.1340199062     9.8108549138
 Xe    15.7215949337   -21.1254273617    10.2013004362
