          6
Energy: -1.303194639803527 Kcal/mole
 Xe   -16.0928917908    -2.0373569378     6.4399467913
 Xe    -9.9853248767   -14.4089315876    -6.6990891990
 Xe   -13.6322372101   -13.0824897243    -4.5848167987
 Xe   -16.0053084685    -5.1400188085     3.2981708369
 Xe    10.5600470905   -21.9941721555     2.9762829489
 Xe     6.9997338782   -19.8115426289     4.4192292844
