          6
Energy: -0.016528311915321652 Kcal/mole
 Xe   -12.7169229497    11.8551795187    -9.1976193973
 Xe    12.7081886115   -12.5428796332    -7.3372932986
 Xe    -9.5121856409    -9.8321211659    11.3558269447
 Xe     8.7386542870     3.2535228730    -7.9494162058
 Xe     4.9249264449     4.0418939053    11.9813325397
 Xe     9.5914990959     9.6739887595    16.4883479166
