          6
Energy: -8.524275558451179E-4 Kcal/mole
 Xe     5.0198706014    13.0163551074   -13.1134397731
 Xe    18.1720365042   -24.7063037867    14.4807139419
 Xe    11.1585705379    12.2947202788   -25.8181765618
 Xe   -10.7347536494   -23.8277678799    10.2892400079
 Xe   -15.2491404982    25.9717825474     9.7640491212
 Xe    22.5332725884   -11.7780269415   -13.7598118731
          6
Energy: -0.002741446904753025 Kcal/mole
 Xe     8.8548411316    -8.9769063156   -13.5467003166
 Xe    16.8813848588   -16.0508481995    25.4565134474
 Xe   -12.9350881022    10.1480843325     0.4167913662
 Xe    11.3634859846   -12.8438774672   -24.2337322894
 Xe    -5.4224732548   -14.3425838317    16.0676110808
 Xe    22.1418461632   -17.9852961995     2.1505078624
          6
Energy: -0.8726943577358678 Kcal/mole
 Xe   -20.7197062544    -6.2982672890    22.9641506095
 Xe     2.3547477530     3.5301797573     7.5764566815
 Xe   -12.9533929796     8.5087455854    -6.9188647239
 Xe   -14.6711929810     4.9046898192    -8.2241010171
 Xe   -25.9308062242   -16.3628201054    22.5763426386
 Xe   -17.7663376859     8.0554641096   -10.2683361963
          6
Energy: -0.007545757827085694 Kcal/mole
 Xe   -19.9610052362    12.9784778542     1.9426742555
 Xe     9.8677966778    22.0681580286     8.9182866202
 Xe   -14.4002653331   -19.7219193570   -23.3893857799
 Xe   -19.1554751629   -19.2878079121    13.4496395746
 Xe     1.0597462935    18.6089584668    12.3512394286
 Xe   -21.4258594780    12.8699741901    14.9290162473
          6
Energy: -0.40937016046989466 Kcal/mole
 Xe   -25.4424458705   -12.8444795384   -11.1032293756
 Xe   -26.1845422572    -8.3060765666   -11.5298896802
 Xe   -24.6223403097    25.1660278835   -19.2282747790
 Xe    10.2017383848    11.7632723606   -11.0921673253
 Xe   -13.7136838619     0.0256373908    -0.1337374395
 Xe    23.2347059882   -19.5055681391    20.0926917031
          6
Energy: -1.6681100255547645 Kcal/mole
 Xe   -21.2114978258    18.2827799963   -22.4047025125
 Xe    16.4572856587   -25.7252721231   -11.8374929394
 Xe   -18.9805232375    25.5529664891   -16.4049166821
 Xe   -19.1573342349    20.3696023322   -17.7234831448
 Xe    14.1862802999   -24.0277176844   -15.2087225814
 Xe    17.6789337263   -21.7390880903   -14.1291573231
          6
Energy: -1.9136325525287003 Kcal/mole
 Xe   -21.7560843845    18.1781881762   -20.3106568121
 Xe     3.9122637520   -21.8888947806   -17.6196185456
 Xe   -21.6609733972    15.4329781125   -16.8745914028
 Xe   -23.2824606524    16.7316599125   -24.6283178497
 Xe     1.4744475674   -22.5664832468   -13.4786561903
 Xe     6.4213617739   -21.9102260340   -14.0405866290
          6
Energy: -2.4827577386524196 Kcal/mole
 Xe   -22.0117246796    19.9981185204   -17.5442260013
 Xe     5.1002536062   -16.3475705611   -13.9348849558
 Xe   -21.9131738526    16.4789918863   -14.8305540943
 Xe   -25.9548979091    17.8629139622   -16.6159752180
 Xe     9.3118078232   -16.3287887015   -15.3581912766
 Xe     5.6152757797   -17.0838725809   -18.3312645651
          6
Energy: -2.5838803045769723 Kcal/mole
 Xe   -21.2395310161    20.2985486839   -16.0290104552
 Xe     5.9982702181   -17.6196073306   -18.0819380862
 Xe   -20.0384046951    17.8706802255   -19.4889737775
 Xe   -17.4744391211    18.0603009109   -16.0245624179
 Xe     7.2393149801   -20.6288484961   -21.0060554837
 Xe     3.2482209524   -18.7856519030   -21.2879800532
          6
Energy: -2.597976700950913 Kcal/mole
 Xe   -21.3723453355    20.1773737793   -16.0364945498
 Xe     6.0560263597   -17.4651631375   -18.1400767667
 Xe   -19.9561536573    18.0966091092   -19.6646277619
 Xe   -17.5928512651    17.8945909849   -15.9355394845
 Xe     6.9891982558   -21.0343284590   -20.5641678636
 Xe     3.4032151453   -18.6303242192   -21.4745830965
