          6
Energy: -0.22432465635822502 Kcal/mole
 Xe   -26.2031688646   -11.3958461967    15.7574662110
 Xe    14.9798498392     5.0090956693     2.4577066321
 Xe    -9.8763212417    21.3779904310   -18.0360213769
 Xe   -23.2527904584    18.2913465810   -13.1825725222
 Xe   -15.7143893659   -23.5675165171    -5.2908255968
 Xe   -11.6725126100    21.7146090027   -12.9601484250
          6
Energy: -0.002612992905732373 Kcal/mole
 Xe    -5.6148998568    -6.4600663415    25.4090986396
 Xe    25.1357468338    -0.1615901354   -21.8285165497
 Xe   -12.2990586513    25.0152849855     0.6262902437
 Xe   -18.9740263260    25.1952831101    10.4150640560
 Xe   -10.4535288276    18.5514434046   -18.6802014003
 Xe     7.0417386455    23.7650733517   -14.9506623537
          6
Energy: -9.429013935407545E-4 Kcal/mole
 Xe     9.9863520582   -15.5758226755    -0.8125208424
 Xe     3.8824894189   -24.5913398419   -18.4516458723
 Xe     1.6799484560   -14.1519916399    22.4653941159
 Xe    16.0678142115    -3.7182586375     4.3152457895
 Xe     2.6676704790     7.5709902316   -17.8958453556
 Xe    26.1836789373    23.3290891923   -11.4452710585
          6
Energy: -7.338366674362085E-4 Kcal/mole
 Xe     8.3905446598    -5.0460550279    20.7443875585
 Xe   -21.5033333452   -20.1006291901   -20.4528225897
 Xe     1.1718273698    10.4870049466    20.7662870906
 Xe    22.8748476824   -21.2471172846     9.3842421032
 Xe    22.5433935092     2.0223483286     8.8463838132
 Xe     7.5498030395   -21.2330279862     1.2983404694
          6
Energy: -0.1834361932945764 Kcal/mole
 Xe     4.9157777210    14.0059223142    25.5862333802
 Xe     2.0311493669     4.3188835689   -12.5033898026
 Xe   -20.0547025669   -15.1840598089   -25.9760708857
 Xe    23.6421442289   -11.8307260172    13.3433104152
 Xe    24.1020246891   -17.3624428197    14.0893865834
 Xe    16.3699999022     2.6800470252   -24.6698216983
          6
Energy: -6.267743365731412E-5 Kcal/mole
 Xe   -17.5199103534     4.9544005312    24.1593265027
 Xe    -0.7219328142    18.7424047152   -12.3925043716
 Xe   -14.4936021603    -8.0551253597    -6.1808931968
 Xe    22.4653483736    -2.5482831624    24.2035283615
 Xe     3.7533368548   -24.7733871402    24.1929953233
 Xe    20.8395146074    10.2052023910   -20.4789459437
          6
Energy: -0.527598502569247 Kcal/mole
 Xe     0.6798830489     3.1039721944    17.4300950971
 Xe   -26.0397829594   -18.8564722161     8.9353265134
 Xe   -20.2791449855   -17.9920596298    21.5192573909
 Xe     0.4715674852     7.4585310084    19.1603830427
 Xe    10.7751170834    -7.6517725356     2.3769432539
 Xe     7.0755192692   -10.4964437767    -1.3089429974
          6
Energy: -1.1790278073633258 Kcal/mole
 Xe    -9.6119906342    -3.7500493603     6.1083776250
 Xe   -21.6012283328   -22.8890920236     0.0507765540
 Xe   -17.3294828457   -23.5487573638     1.3666319171
 Xe    -6.2453045242    -1.1702215755     6.0030954202
 Xe     5.9459784832   -17.2026080625     4.2895367051
 Xe     7.2995253864   -20.8286625591     2.7651003201
          6
Energy: -1.276643885254463 Kcal/mole
 Xe   -15.4797741006    -3.6764118931     9.8726960435
 Xe   -13.1199730669   -19.4497978374    -9.0897119201
 Xe   -17.0456564528   -17.4096065415   -10.1440731813
 Xe   -18.3974200105    -6.8699653075     8.5466274783
 Xe    11.7780324279   -20.9260291645     5.7315256086
 Xe     7.6158837504   -20.3433111514     6.8670241433
          6
Energy: -1.303194639803527 Kcal/mole
 Xe   -16.0928917908    -2.0373569378     6.4399467913
 Xe    -9.9853248767   -14.4089315876    -6.6990891990
 Xe   -13.6322372101   -13.0824897243    -4.5848167987
 Xe   -16.0053084685    -5.1400188085     3.2981708369
 Xe    10.5600470905   -21.9941721555     2.9762829489
 Xe     6.9997338782   -19.8115426289     4.4192292844
