          6
Energy: -1.8417020095626777 Kcal/mole
 Xe   -16.2282441190   -16.1738391281    11.7380032184
 Xe    -9.1947028813   -15.6379307519     9.5343568459
 Xe    -8.4726263539   -11.9595457844    12.7918791293
 Xe   -12.2236044820   -13.0909001855     8.6921952500
 Xe    10.2652686468    -7.1874901484   -16.4665388694
 Xe   -12.4536253476   -17.7246847895    11.8659394757
          6
Energy: -0.4241371726163023 Kcal/mole
 Xe   -20.7156624769   -22.5067896320    16.6718693751
 Xe   -18.0213278649   -19.4952066717    14.6110762943
 Xe    13.0000475740    -2.2070560000    26.1660545004
 Xe   -22.4902209602   -22.1173861399    -6.1147306846
 Xe    23.1757222833    18.7145120725    -3.9097845225
 Xe   -24.9907141934    -5.7633702443    21.8833973705
          6
Energy: -3.1439242619901986 Kcal/mole
 Xe   -12.1265268338   -23.6376787036    12.0321289681
 Xe    -8.3197490483   -20.8052038987    11.1073575492
 Xe   -11.6150381582   -25.9842019796    16.9549773276
 Xe    -8.3324937559   -24.7713411542    13.5779905995
 Xe     2.9800618467    20.9429078475    -0.0564225272
 Xe   -10.3504320225   -21.4081500907    15.8463495757
          6
Energy: -2.8170823436858976 Kcal/mole
 Xe    -4.4565231495   -20.0538721274    18.6149660447
 Xe    -6.3982987406   -23.9698368300    20.5790757017
 Xe    -8.6377481738   -20.1740019705    16.5748183324
 Xe    -6.1026242152   -23.9974199082    16.1839441416
 Xe     7.3627182724    23.8780530313     0.7115138087
 Xe    -2.7579918784   -22.9617010250    22.5004834221
          6
Energy: -2.7976772560118226 Kcal/mole
 Xe    -7.1314948547   -25.7757191379    24.0128802356
 Xe   -11.8940763222   -25.5996402542    24.6023540541
 Xe   -12.9286384880   -23.7330025436    20.5271888899
 Xe    -9.0809356929   -24.8672451406    20.6248345399
 Xe    23.9712622629     9.2789180852    20.4039320528
 Xe    -9.8439242070   -22.0465835701    24.5059762598
          6
Energy: -3.287186339272064 Kcal/mole
 Xe    -6.1901891638   -24.9596232180    24.1840125502
 Xe   -10.1841123276   -22.8371125882    23.5146054221
 Xe   -10.7925864143   -19.3375840822    20.2435249016
 Xe    -9.6805813549   -23.4884916606    19.0381845005
 Xe    11.2881551721    25.7036311593     6.6195676917
 Xe    -6.5444553103   -21.5422145332    21.6918657719
          6
Energy: -4.773690579508835 Kcal/mole
 Xe    -3.7798446621   -17.4452658602    24.5259788119
 Xe    -6.2915733732   -19.5370178235    21.1161937809
 Xe    -7.5055653535   -19.8412111390    25.2951961944
 Xe   -10.3638410343   -20.3845164308    21.9945242024
 Xe    -5.0447965134   -15.7365667252    19.9787551801
 Xe    -8.0919655718   -15.8786804763    23.1816993520
          6
Energy: -5.157957992602759 Kcal/mole
 Xe    -3.4021565997   -16.6395635790    22.8601070210
 Xe    -4.3155819324   -20.6082744635    21.1554429185
 Xe    -4.2805303029   -19.9744407076    25.7145929882
 Xe    -7.3749395343   -22.7086578945    23.4073685626
 Xe    -6.0397126480   -16.5589986198    19.5071109152
 Xe    -7.4948378890   -18.2808908034    23.1548439063
          6
Energy: -5.219478172127339 Kcal/mole
 Xe    -7.2555407262   -17.1593900711    19.3395130097
 Xe    -4.5303850411   -20.3768331246    20.3034031280
 Xe    -7.4376175926   -19.2836334985    23.2681519348
 Xe    -6.8247371275   -23.5964383900    22.5932077112
 Xe    -6.2688264945   -20.0279879553    16.4039232519
 Xe    -8.9663595269   -21.2413169797    19.6178579789
          6
Energy: -5.325638091356046 Kcal/mole
 Xe    -7.3743339898   -17.1711772495    19.6252883667
 Xe    -4.6321741740   -20.5138997349    20.4930310947
 Xe    -7.7578434088   -19.3986109863    23.3962150964
 Xe    -6.8368495903   -23.6498803607    22.6220693901
 Xe    -6.2365173792   -20.0084250690    16.4393989197
 Xe    -8.9664464459   -21.2854674898    19.6137895365
