          32
Energy: -124.3136345275299 Kcal/mole
 H      2.1739824608     0.1706402372    -1.1946527998
 F      1.4491218862    -0.3795091624    -1.0815078236
 H     -2.1991512712    -1.2893666041     3.9477986712
 F     -1.4640282376    -0.7427054079     3.9883531038
 H     -2.9417081530    -3.3594546652     3.7427655290
 F     -3.2907241117    -2.5280254608     3.9095058623
 H      0.3266216343    -1.7619827003    -4.3319656449
 F      0.6408371582    -2.3428596430    -4.9681571114
 H      1.9270102450    -2.0310582485     5.0502911268
 F      2.7394357421    -1.9635710632     5.4701712186
 H      3.5672756677    -1.1791517199    -6.7520187783
 F      3.7945618967    -0.5353438632    -7.3641800428
 H     -0.1851805295    -1.7261063863     4.2063387411
 F      0.4525199454    -2.3699979227     4.3464486755
 H      3.7466137464     1.7408982216    -4.7889195404
 F      3.1409948202     1.8186883142    -4.1047679360
 H      3.3327405223    -3.4218177264     5.9784763744
 F      3.5169384908    -4.3026990059     6.1545680545
 H      3.3780378783     1.4567973690    -2.5044585801
 F      3.4180144195     1.1655055792    -1.6358735414
 H      0.4287857033    -0.5674093164    -2.3764464189
 F     -0.0474297995    -0.6595094193    -3.1546657748
 H      2.6967465527    -5.2748144399     5.1061888503
 F      2.1428563847    -5.6966918624     4.5094358678
 H     -1.4922094840    -5.1068004054     4.0532866049
 F     -2.1173678887    -4.7693107889     3.4734877366
 H      2.2471779117    -2.2722016792    -5.2993892745
 F      3.1391336505    -2.1368494740    -5.4636565581
 H      0.5327238791    -5.7133113944     4.8808068621
 F     -0.3530126769    -5.6653122768     5.1133059765
 H      4.4678649963     0.7656291470    -6.6023548634
 F      4.7615211425     1.4331794741    -6.0464487305
