          32
Energy: -131.61207644350827 Kcal/mole
 H     -0.9314668286     1.6839648449     1.6211171115
 F     -1.1216607406     2.0715145427     0.8120926944
 H     -0.7689947813    -1.7224297207     0.2535193608
 F     -1.1243019281    -0.9138998094     0.5003496955
 H      0.5446508483    -2.8249734074    -1.1329784432
 F      0.0123768277    -3.0099792200    -0.4095517253
 H     -0.1148498965     5.0566504466    -0.6870583550
 F      0.4499218793     5.1613055397    -1.4018794185
 H     -1.3909115735     1.9772686594    -1.8026554708
 F     -1.6139295961     2.8358854073    -2.0348821742
 H      2.0145149542     2.1528867800    -1.0395156697
 F      2.2167193361     1.8110833222    -0.2129730004
 H     -0.9928310411     0.0258085516    -0.8357013838
 F     -0.8239394719     0.4283659553    -1.6421207378
 H      1.5271181666    -0.9356157871     1.7660272769
 F      1.2062955250    -0.9352585408     2.6250742518
 H     -1.2010326217     3.0056146943    -3.6446137865
 F     -0.8746984127     2.9512144794    -4.4998538701
 H      0.1014861247     0.2617830887     2.9604355421
 F     -0.4478051658     0.9927759824     3.0298435216
 H     -1.1462519885     3.7421263127     0.7158248456
 F     -1.0313218978     4.6473528299     0.6250227162
 H      0.2816731553     1.7716164993    -4.7315001931
 F      0.8589439620     1.0611606958    -4.7853515346
 H      1.7094592254    -1.4757298392    -2.5432442005
 F      1.3992493629    -2.3352253103    -2.4662612399
 H      1.0850265103     3.8032873939    -2.0824679322
 F      1.3932869374     2.9843727385    -2.3567730472
 H      1.7262244509     0.4893674779    -3.4924300148
 F      2.1487681945     0.1210732047    -2.7666854915
 H      2.1033698335     0.1795649527    -0.0397047072
 F      1.9341711316    -0.6987078866     0.1625268903
