          32
Energy: -131.71682140079494 Kcal/mole
 H     -1.2670332689     0.6538909235     1.8523151777
 F     -1.4824734921     1.0643164180     1.0610974936
 H     -0.7858949209    -2.6613830857     0.2830970888
 F     -1.2133058203    -1.9260202921     0.6258075860
 H      0.4773886236    -3.4663999129    -1.3188334472
 F      0.0755521686    -3.7848406208    -0.5585624567
 H     -0.3129658825     4.3227410323    -0.4227686878
 F      0.0969640723     4.6435478384    -1.1777053906
 H     -1.5132643633     1.1219535633    -1.5915099011
 F     -1.5227866230     2.0217878046    -1.7678523653
 H      1.5016138395     1.7858132988    -1.1083225409
 F      1.4484593675     1.3721425086    -0.2916585467
 H     -1.3796142765    -0.9342989512    -0.6854946920
 F     -1.3318642873    -0.5217685891    -1.5030689326
 H      1.5088031781    -1.4840522352     1.6199464808
 F      1.3163403796    -1.5413610390     2.5146882157
 H     -1.3692197364     2.3663735599    -3.3925107609
 F     -1.1851091600     2.4394869824    -4.2878580248
 H      0.0010574146    -0.6658505274     3.0347034862
 F     -0.6879524756    -0.0835549122     3.1992823056
 H     -1.1648012647     2.7118996047     0.9463049864
 F     -0.9512857942     3.6035515708     0.9302764169
 H      0.1104706525     1.5440145824    -4.8217704553
 F      0.7883414358     0.9496474061    -4.9894244471
 H      1.2859561264    -1.8491558565    -2.7168033047
 F      1.0872802621    -2.7439007923    -2.6876759828
 H      0.9355211689     3.5290112969    -2.0514379952
 F      1.3526352431     2.7959221031    -2.4112783530
 H      1.3644650726     0.2102162823    -3.6390381410
 F      1.5787782757    -0.1972220212    -2.8459726457
 H      1.6554683135    -0.2678280864    -0.1945708965
 F      1.6767954776    -1.1662747290    -0.0122860028
