          32
Energy: -131.7177451905529 Kcal/mole
 H     -1.2697701676     0.6444018989     1.8493738214
 F     -1.4842785715     1.0524011121     1.0566495398
 H     -0.7838940661    -2.6627147125     0.2815884385
 F     -1.2085949191    -1.9263176188     0.6254452485
 H      0.4731118134    -3.4692939237    -1.3240745862
 F      0.0709629007    -3.7867630365    -0.5635625124
 H     -0.3113417243     4.3193225985    -0.4233496440
 F      0.0968779145     4.6437291784    -1.1776745722
 H     -1.5088193253     1.1238568621    -1.5913709491
 F     -1.5257146999     2.0236711681    -1.7672622823
 H      1.4938100718     1.7840390364    -1.1124709128
 F      1.4368567447     1.3699118127    -0.2962944851
 H     -1.3666491403    -0.9306299399    -0.6866210258
 F     -1.3131889234    -0.5183489449    -1.5039675780
 H      1.5106934235    -1.4773738580     1.6109516858
 F      1.3171153851    -1.5349783702     2.5054338059
 H     -1.3695034373     2.3674005199    -3.3924859054
 F     -1.1850941103     2.4394325046    -4.2878593433
 H      4.321263E-40    -0.6640732050     3.0323389084
 F     -0.6898559620    -0.0841723152     3.1999882842
 H     -1.1627296338     2.6994609111     0.9446224630
 F     -0.9467149683     3.5905495038     0.9309190175
 H      0.1047438263     1.5379246933    -4.8257509902
 F      0.7795069295     0.9407069515    -4.9957942891
 H      1.2837400221    -1.8520647066    -2.7245400087
 F      1.0854779393    -2.7468814233    -2.6948046756
 H      0.9350203285     3.5296584163    -2.0531229140
 F      1.3507433805     2.7957518527    -2.4129068769
 H      1.3592029089     0.2053030407    -3.6482639753
 F      1.5765560538    -0.1999326046    -2.8548972996
 H      1.6551278498    -0.2648813418    -0.1977348900
 F      1.6830657877    -1.1630629565    -0.0150377125
