          32
Energy: -131.69438967032931 Kcal/mole
 H     -1.2889418996     0.7742442382     1.8374427419
 F     -1.5713633201     1.1622715199     1.0560580927
 H     -0.9402460088    -2.5893247135     0.3159925530
 F     -1.3215017891    -1.8398784737     0.6818659786
 H      0.2573631655    -3.4484952242    -1.3448716942
 F     -0.1662926704    -3.7399182379    -0.5856106326
 H     -0.4080532848     4.3495551483    -0.5860088791
 F     -0.0216714190     4.6391524145    -1.3655802211
 H     -1.6300799058     1.1832078715    -1.5997082627
 F     -1.6568007074     2.0775426020    -1.8005574312
 H      1.3871026410     1.7428469048    -1.1636399440
 F      1.3024419279     1.3196655707    -0.3545422230
 H     -1.4774159264    -0.8443513777    -0.6425723939
 F     -1.4185359772    -0.4529468394    -1.4697511165
 H      1.4343890545    -1.5194110318     1.5789116241
 F      1.2555779979    -1.5628493327     2.4772593964
 H     -1.4874324402     2.3745118644    -3.4374846429
 F     -1.2885497703     2.4179594201    -4.3316026404
 H      0.0305570011    -0.5603358698     2.9989204690
 F     -0.6034735426     0.0812961079     3.1638528031
 H     -1.2145430697     2.7971970212     0.8758947579
 F     -0.9758265350     3.6810293698     0.8235135037
 H     -0.0066269087     1.4993714837    -4.8589414398
 F      0.6643457565     0.8974708482    -5.0274653475
 H      1.1477573809    -1.9043309049    -2.7531286853
 F      0.9274812469    -2.7935122594    -2.7116082852
 H      0.8625724762     3.4961764518    -2.1507120689
 F      1.2944881009     2.7521093645    -2.4680479520
 H      1.2460074185     0.1493798732    -3.6901063326
 F      1.4679397620    -0.2611848040    -2.9007574359
 H      1.5388712358    -0.3169067759    -0.2542580986
 F      1.5753441020    -1.2123430699    -0.0599578835
