          32
Energy: -4.543771068404574 Kcal/mole
 H      3.6692287832    -5.3524909291    -1.2445651064
 F      4.2291116449    -4.6262539284    -1.2445651064
 H      1.1257450986     5.1998323446    -1.8759992473
 F      1.6152141120     5.9752735641    -1.8759992473
 H     -2.2521540135    -0.3383310651    -0.8773743281
 F     -2.9178209313    -0.3383310651    -1.5080696227
 H     -3.9146537395    -3.6981902364     4.1796969070
 F     -4.3827164604    -2.9096432883     4.1796969070
 H      1.5945475179     0.1857201690     1.7269232114
 F      2.5115475179     0.1857201690     1.7269232114
 H      7.0724758889    -4.0044752612     3.0612874112
 F      6.5906029238    -4.0044752612     2.2811031730
 H     -2.0701807900     4.5204339407     1.8595789604
 F     -1.1531807900     4.5204339407     1.8595789604
 H      3.0274905414    -4.5933017737    -5.8513234623
 F      3.8865694556    -4.9140390791    -5.8513234623
 H     -1.8148734509    -4.1545867349    -5.6343173678
 F     -1.1045145018    -4.7344825561    -5.6343173678
 H      5.2899476333     4.1987217868     0.1357442991
 F      6.2069476333     4.1987217868     0.1357442991
 H      5.6257464962     3.6042404151     2.7129182345
 F      4.8909854404     3.6042404151     3.2615667476
 H      3.6313185460    -3.7911394541     5.0809348744
 F      3.9886752668    -2.9466365387     5.0809348744
 H     -3.1446514439     5.3664327988    -2.7404818033
 F     -2.9858538579     5.3664327988    -1.8373360085
 H     -6.0453954926     3.9152094340    -6.0381246297
 F     -5.1283954926     3.9152094340    -6.0381246297
 H      3.3705221089     2.0168498256    -3.6941403245
 F      3.4083763501     2.0168498256    -2.7779219791
 H      0.3022195692    -0.6876141701     3.9656519379
 F      0.3459163051     0.2283441234     3.9656519379
