          14
Energy: -0.6717356868581845 Kcal/mole
 H      1.5628466387    -4.4382583291     1.8625102125
 F      2.4798466387    -4.4382583291     1.8625102125
 H      6.1273656693     0.4618600811     1.8887975171
 F      5.2121174572     0.4052057760     1.8887975171
 H     -0.5706054569    -2.9095723202    -4.2485297137
 F     -1.4248010649    -2.9095723202    -4.5820546202
 H     -2.4446071502     4.2580205328    -2.6803626063
 F     -2.4575635222     4.2580205328    -3.5972710709
 H      5.2001903917    -2.0512078964    -0.6405485186
 F      4.5183685414    -2.0512078964    -1.2537434015
 H      3.7798186720     4.2544293113     4.5302102647
 F      2.9238658032     4.2544293113     4.8591991495
 H     -2.1757740161    -5.6526717992     3.3804493523
 F     -2.3397780307    -4.7504569228     3.3804493523
