          14
Energy: -54.11020486754238 Kcal/mole
 H      0.5038885716    -3.5990031271     3.3250650619
 F      1.4201090518    -3.6360386268     3.3326415705
 H     -1.5044753233    -4.2251162657     2.5702176526
 F     -1.1303807033    -3.5576345753     3.0755991009
 H     -1.7321758875    -4.1097339273    -1.3089897838
 F     -2.3802115634    -4.6250765979    -0.9148315737
 H     -2.2066895622    -5.1687006935     0.6456584258
 F     -2.0221058326    -5.3910452256     1.5159346784
 H      2.1582954816    -3.4828308189    -0.1703191985
 F      1.8369343423    -3.9323685126    -0.9021196358
 H      0.4029569699    -3.4544085733    -1.5733143896
 F     -0.4421844376    -3.2142487787    -1.8358944240
 H      2.2073815461    -3.0009079278     2.0229898006
 F      2.5414139350    -2.6860688452     1.2291461666
