          14
Energy: -54.11684352279528 Kcal/mole
 H      0.2015280182    -4.0396425224     3.0362703776
 F      1.1022529616    -4.0978684336     2.8744268737
 H     -1.9229483048    -4.4249023018     2.4661906097
 F     -1.4485143215    -3.9571872632     3.0963049153
 H     -1.5299659463    -4.5604185979    -1.6553802248
 F     -2.1605035759    -4.1785975640    -1.1099226225
 H     -2.5118954423    -4.8729917740     0.3486812124
 F     -2.5929083047    -5.2387420024     1.1856714672
 H      2.0247022236    -4.3177544816    -0.6370998937
 F      1.9927612063    -4.9506469702    -1.2999089683
 H      0.5718961926    -5.1885703932    -2.1116048132
 F     -0.2726230939    -5.2652867749    -2.4605901590
 H      1.6524714887    -3.5013242370     1.4396790404
 F      1.8676066151    -3.2212316935     0.5934201885
