          14
Energy: -54.11712566944853 Kcal/mole
 H      0.1943174390    -4.0391462056     3.0318579366
 F      1.0951841605    -4.0998341620     2.8717169923
 H     -1.9234917566    -4.4295348398     2.4620038574
 F     -1.4539057150    -3.9552755588     3.0908568481
 H     -1.5546536771    -4.5838666532    -1.6648399516
 F     -2.2012548791    -4.2225757365    -1.1242247843
 H     -2.5191062661    -4.9001205135     0.3497238818
 F     -2.5841184703    -5.2564332458     1.1921629894
 H      2.0372011058    -4.3131915593    -0.6362183700
 F      2.0033341260    -4.9426280953    -1.3022151229
 H      0.5774953811    -5.1757440643    -2.1162006293
 F     -0.2667167129    -5.2520449841    -2.4660193108
 H      1.6597777005    -3.5052794028     1.4411881456
 F      1.8835747401    -3.2247626785     0.5973195228
