          14
Energy: -54.09336408372421 Kcal/mole
 H     -1.7232546159    -1.0114633829    -1.1779319751
 F     -2.3678122152    -0.6223752089    -1.7014249493
 H     -0.5431363397    -2.7373145974    -0.3179023357
 F     -0.7205504917    -1.8511890402    -0.1623558294
 H     -2.7128352881    -4.9797778357     1.4419333932
 F     -2.0579225128    -5.5100244859     1.0802474152
 H     -0.9721353516    -4.8528533012     0.0178689928
 F     -0.4427128551    -4.3645898952    -0.5497573513
 H     -5.2210607630    -2.0542736039    -0.1983329561
 F     -5.3670589995    -2.9105732134     0.0954773461
 H     -4.4512966148    -3.5469822881     1.3126516187
 F     -3.8543004775    -3.8831073657     1.9221633448
 H     -3.9180055541    -0.5028162048    -1.1071426494
 F     -4.7442956753    -0.5567239603    -0.7131533227
