          2
Energy: -0.018935289664148498 Kcal/mole
 He     1.0912374148     2.2992333176     5.5955090720
 He    -1.5484105642     2.7553827615     6.3061891479
          2
Energy: -1.3267794761936286E-5 Kcal/mole
 He    -1.9527339748     7.0278896021     6.0924680944
 He     7.2349408412     3.7552522749     1.2159928330
          2
Energy: -4.513257603265009E-5 Kcal/mole
 He     2.1946539088     4.3563981809    -2.1682746654
 He    -4.9676015448    -0.8029751094    -1.1034644397
          2
Energy: -1.2344400137838783E-5 Kcal/mole
 He    -0.5216804152     4.8964177711     1.1317452595
 He     6.1048359179    -3.2128053220     4.6142094864
          2
Energy: -8.931832513986134E-6 Kcal/mole
 He     2.3455470380     2.7712547624    -6.9415816719
 He    -6.2130909567    -2.1954293158    -0.7972119558
          2
Energy: -0.0010524975969451204 Kcal/mole
 He    -0.9691810861     1.8249532492    -0.3704372094
 He    -5.2066834716    -1.0469410581    -1.5308802336
          2
Energy: -2.950016358250085E-5 Kcal/mole
 He    -7.0006743342     0.8352784296     1.9735425345
 He    -5.3725261620    -2.4180121734    -6.8502497972
          2
Energy: -3.8455633219379665E-6 Kcal/mole
 He     2.7796803931    -5.6180728237     3.8312499385
 He     6.9565213785     0.6900562867    -7.2339234395
          2
Energy: -1.0134148019244987E-4 Kcal/mole
 He     2.4023878570    -1.5143883789    -7.0973723129
 He     0.3023388027     5.1924121434    -3.7863981861
          2
Energy: -0.019999999996434585 Kcal/mole
 He    -0.1827053785     0.7826838853    -6.2634648596
 He     0.1126726865     2.6670317790    -4.1202809178
