          8
Energy: -26.85984475874207 Kcal/mole
 H     -0.7444605689     1.0334842564     0.7423818882
 F     -0.5505825483     0.7143243672    -0.0951366359
 H      0.2543741446    -1.3732625317     2.1817604135
 F      0.0835046863    -1.0410692412     3.0192210072
 H     -0.6011765583     0.4710199391     2.7579385705
 F     -0.9378176221     1.2389684533     2.3867016195
 H      0.0874266650    -0.8163802569     0.1555035123
 F      0.4007863214    -1.5958606000     0.5230699966
