          8
Energy: -26.592873286385156 Kcal/mole
 H      0.0631821782     1.2795670605     0.6989843207
 F      0.1348391013     1.0246376650    -0.1789480735
 H     -0.0566571318    -1.4877316971     1.7852366906
 F     -0.1807422108    -1.2871578501     2.6713868049
 H     -0.2344151640     0.3950150667     2.6249912780
 F     -0.0795415905     1.2623337974     2.3707052270
 H      0.1893911562    -0.6020155749    -0.1126302480
 F      0.1917587967    -1.4815886808     0.1466660024
          8
Energy: -26.777909588517673 Kcal/mole
 H      0.1082204478     1.3137890849     0.5712320781
 F      0.5836125382     1.1271070282    -0.1903722615
 H      0.1561504735    -1.4785650508     1.6091729523
 F     -0.2540537654    -1.2746306455     2.4035483300
 H     -0.5448484030     0.3649068360     2.2993716836
 F     -0.6322765882     1.2483461050     2.0696318951
 H      0.8174330728    -0.5611843726    -0.1626639671
 F      0.8017076234    -1.4494142101     0.0646892078
          8
Energy: -26.765538184905978 Kcal/mole
 H     -0.3961381794     1.2082776898     0.5459818305
 F     -0.0508194542     1.0176714298    -0.2818546460
 H      0.4178023484    -1.4017813434     1.8714958307
 F     -0.0649436817    -1.2437740840     2.6349609422
 H     -0.6580289384     0.3228850241     2.4495036393
 F     -0.9102452401     1.1455446394     2.1324751003
 H      0.7774209567    -0.4141308079    -0.0073479118
 F      1.1478794937    -1.1818178692     0.3307438631
          8
Energy: -26.625053954744516 Kcal/mole
 H     -0.4577294640     1.0664811297     0.5098326459
 F     -0.0142572964     0.8535992716    -0.2640554281
 H      0.4881610206    -1.3866391341     1.8401493882
 F      0.1756202408    -1.1280138811     2.6625363041
 H     -0.8016966705     0.2586124094     2.4352634877
 F     -1.1439633400     1.0070235739     2.0307597722
 H      0.7119632382    -0.6258683278    -0.0747078865
 F      0.9853716273    -1.4497031637     0.2209828574
          8
Energy: -26.778268949772354 Kcal/mole
 H     -0.4567810764     1.1244100357     0.5136236715
 F     -0.0574755097     0.9058182763    -0.2824050385
 H      0.0910869517    -1.5047312684     1.7983031281
 F     -0.3845606958    -1.3608454415     2.5689815203
 H     -0.9011521720     0.2299688480     2.4006419001
 F     -1.0438228729     1.0892453349     2.1139748628
 H      0.6465252760    -0.5789192925    -0.0333454165
 F      0.9024719713    -1.3802259158     0.3317408535
          8
Energy: -26.833624723392944 Kcal/mole
 H     -0.2774883091     1.1497932422     0.5883891670
 F      0.1593914878     0.9371325113    -0.1893000103
 H      0.2020960598    -1.5213826809     1.8678571392
 F     -0.2500201397    -1.3491510178     2.6468412189
 H     -0.7384978390     0.2278215079     2.4592202374
 F     -0.9151858198     1.0746736827     2.1550627922
 H      0.6999928959    -0.6239879966     0.0244839465
 F      0.9133821919    -1.4525858310     0.3543015284
          8
Energy: -26.80301718200792 Kcal/mole
 H     -0.1688239006     1.1801778984     0.6914285209
 F      0.2818885455     0.9805746300    -0.0818151833
 H      0.2325664662    -1.5130326324     1.8628389803
 F     -0.2452834381    -1.3497302866     2.6282674961
 H     -0.7413418050     0.2546088016     2.5166091374
 F     -0.8605137835     1.1136586347     2.2187493990
 H      0.8187667855    -0.5981010336     0.1058554780
 F      0.9767756640    -1.4605376079     0.3744171088
          8
Energy: -26.836955538972433 Kcal/mole
 H     -0.1460634640     1.1850886628     0.7337923081
 F      0.2961219495     0.9967758656    -0.0471682225
 H      0.2799476172    -1.5179211373     1.9076558796
 F     -0.1609560310    -1.3356690783     2.6907760236
 H     -0.6526785612     0.2499802854     2.5520976028
 F     -0.8204026115     1.1121934792     2.2887612182
 H      0.8115647114    -0.5856469789     0.0972125447
 F      0.9838516925    -1.4390263840     0.3852225914
          8
Energy: -26.843357122176855 Kcal/mole
 H     -0.0873866466     1.1929839769     0.7713440086
 F      0.3614885561     1.0250336121    -0.0104441515
 H      0.2732568748    -1.5217735477     1.9048309279
 F     -0.1606011026    -1.3354647168     2.6909258808
 H     -0.6301944657     0.2646049402     2.5541349467
 F     -0.7800711851     1.1275772938     2.2826488772
 H      0.8519578322    -0.5591469591     0.1166063833
 F      0.9970681706    -1.4237873194     0.3853609870
          8
Energy: -26.85768275090905 Kcal/mole
 H     -0.0299636815     1.2254536112     0.7992314440
 F      0.4349896229     1.0567564910     0.0270600211
 H      0.2813984582    -1.5170014300     1.9082609068
 F     -0.1610329948    -1.3357178666     2.6907439283
 H     -0.6337817878     0.2661149455     2.5607996903
 F     -0.7798808859     1.1274971915     2.2822953279
 H      0.8693185702    -0.5546995100     0.1222323064
 F      0.9961472236    -1.4240232463     0.3850625447
