          8
Energy: -26.509879954349373 Kcal/mole
 H      0.1589809925     1.4201046701     1.0960068772
 F      0.7597069969     1.1621083021     0.4530021014
 H     -1.3437381836    -1.1377560136     0.8963988616
 F     -1.8689075776    -0.9197880305     1.6158264577
 H     -1.4980966107     0.6826474500     2.0620773689
 F     -1.1665805198     1.5328354832     2.1524454478
 H      0.3501497196    -0.4067563960    -0.0851885055
 F     -0.1494770609    -1.1632393689    -0.2230130023
          8
Energy: -26.683806230114925 Kcal/mole
 H      0.2264592886     1.4199802761     1.2679870870
 F      0.9406499122     1.0973111797     0.7918511744
 H     -1.5424947967    -1.0045623402     1.0376329105
 F     -2.1366854884    -0.7509747390     1.6884168610
 H     -1.6630497972     0.7987280527     2.0135551569
 F     -1.2414229512     1.6110734797     2.0702535693
 H      0.2609988415    -0.3609445077     0.1613035746
 F     -0.2604699302    -1.0937756110    -0.0173522233
          8
Energy: -26.63263424236024 Kcal/mole
 H      0.2517589362     1.1942745890     1.5342888854
 F      0.9480102107     0.7590718763     1.1259731233
 H     -1.6381027220    -1.0843677916     1.3242507646
 F     -2.2252193238    -0.7180703902     1.9259228593
 H     -1.6790660660     0.8224237328     2.2687208032
 F     -1.2119129198     1.6112812636     2.2497278038
 H      0.2060470469    -0.6028738318     0.4731759753
 F     -0.3813938517    -1.2541053176     0.2054078993
          8
Energy: -26.26796270813273 Kcal/mole
 H     -0.0669403010     1.3819236672     0.8568593650
 F      0.2915112211     1.0692632980     0.0728663805
 H     -1.1978711279    -1.2667512104     1.9997909066
 F     -1.6162401104    -0.9294607943     2.7428195532
 H     -1.1091500897     0.7876367123     2.6536312275
 F     -0.8019000438     1.6035874124     2.3695346519
 H      4.20171E-400    -0.5508733818     0.2451495198
 F     -0.1835082130    -1.3865604632     0.5748258028
          8
Energy: -26.816111749501033 Kcal/mole
 H     -0.2060252311     1.3456312134     0.9735483575
 F      0.0786169615     1.0563404501     0.1512475144
 H     -1.3295305432    -1.2787270060     1.7803681806
 F     -1.6686129161    -0.9851133292     2.5801826298
 H     -1.2296165433     0.6325146326     2.6690894733
 F     -0.8815881816     1.4681455183     2.5225074746
 H     -0.3135600092    -0.5419857016     0.1074764201
 F     -0.6068796727    -1.3915949587     0.2891813604
          8
Energy: -26.71022255996715 Kcal/mole
 H     -0.0251091196     1.4265725341     0.9901307416
 F      0.2954433285     1.1872075459     0.1650007334
 H     -1.1518970679    -1.2954354499     1.7380714024
 F     -1.4479197834    -1.0832014203     2.5796272642
 H     -1.1181522085     0.5445204112     2.6779111503
 F     -0.8456053254     1.4061931279     2.5225814179
 H     -0.0898356038    -0.4266344981     0.0604494063
 F     -0.4239841427    -1.2638803248     0.2285362277
          8
Energy: -26.819531196190525 Kcal/mole
 H     -0.1118751527     1.4778950898     0.9681056541
 F      0.0448275913     1.2392140338     0.0966903664
 H     -0.8893322982    -1.2371441830     1.8130548715
 F     -1.1324759086    -0.9858503875     2.6607703975
 H     -0.7821655215     0.6753758489     2.7602975281
 F     -0.5216806741     1.5369149419     2.5848351804
 H     -0.1779079523    -0.4191792712     0.0211504031
 F     -0.3433828999    -1.2951761913     0.2359443455
          8
Energy: -26.77729269396994 Kcal/mole
 H     -0.0525362403     1.4781796895     0.9663810857
 F      0.1401406531     1.2274485372     0.1056264725
 H     -0.8628039061    -1.2372313872     1.8239834932
 F     -1.0655322253    -0.9934057395     2.6844132010
 H     -0.7187405168     0.6671385974     2.7952017224
 F     -0.4710747491     1.5278538617     2.5984279911
 H     -0.2159038427    -0.4399270748     0.0269928944
 F     -0.4307403002    -1.3041085486     0.2459099488
          8
Energy: -26.84302060865511 Kcal/mole
 H     -0.0118421856     1.4647362523     0.9984386733
 F      0.1510949744     1.2255367061     0.1283099133
 H     -0.9102650917    -1.2022335316     1.8598965077
 F     -1.0877084283    -0.9549781430     2.7249211520
 H     -0.6535065277     0.6589077111     2.8144479692
 F     -0.3777757350     1.5130249052     2.6264443818
 H     -0.2025053722    -0.3967470681     0.0561590553
 F     -0.4482436352    -1.2600044337     0.2440111963
          8
Energy: -26.858912849868005 Kcal/mole
 H      0.0025217631     1.4726327661     0.9987949956
 F      0.1503330002     1.2251178143     0.1282910112
 H     -0.8947190381    -1.2113305184     1.8659051864
 F     -1.0885331105    -0.9544955689     2.7246024055
 H     -0.6627189554     0.6612522831     2.8113076955
 F     -0.3772870370     1.5129005311     2.6266109661
 H     -0.1894539692    -0.4054632440     0.0698693596
 F     -0.4285082271    -1.2688487526     0.2655924427
