          8
Energy: -26.858912849868005 Kcal/mole
 H      0.0025217631     1.4726327661     0.9987949956
 F      0.1503330002     1.2251178143     0.1282910112
 H     -0.8947190381    -1.2113305184     1.8659051864
 F     -1.0885331105    -0.9544955689     2.7246024055
 H     -0.6627189554     0.6612522831     2.8113076955
 F     -0.3772870370     1.5129005311     2.6266109661
 H     -0.1894539692    -0.4054632440     0.0698693596
 F     -0.4285082271    -1.2688487526     0.2655924427
