          8
Energy: -26.84155530654553 Kcal/mole
 H      0.5863280471     1.2211464053     0.9317330217
 F      0.9827129043     1.0061397129     0.1332718973
 H     -0.0034888838    -1.5706048905     1.7398658688
 F     -0.3047305349    -1.3611302418     2.5802603233
 H     -0.2881792204     0.3002553771     2.6072712419
 F     -0.1850796528     1.1896520678     2.4091980089
 H      0.7917330755    -0.6309840772     0.0224793408
 F      0.5959225705    -1.5141065748     0.1729515989
