          8
Energy: -26.539694126686783 Kcal/mole
 H      0.3160022366     1.4571292684     1.1603028679
 F      0.6126039297     1.1784552027     0.3385625192
 H     -1.4959211926    -0.9724580721     1.7822959106
 F     -1.7652696598    -0.6671807349     2.6039686865
 H     -1.0610576617     0.8727627890     2.6921720015
 F     -0.5470456862     1.6239366897     2.5807338570
 H     -0.1210666345    -0.3738888464     0.2536043323
 F     -0.6391501949    -1.1254805690     0.3407152221
          8
Energy: -26.42304699091659 Kcal/mole
 H     -0.5817714974     1.6850167772     1.1075495510
 F     -0.5792960400     1.5011506947     0.2091753886
 H     -1.1626212684    -1.2608799464     1.8370349952
 F     -1.3129355876    -1.0770540137     2.7227565270
 H     -0.7490338119     0.5349349160     2.9319296434
 F     -0.5119476361     1.4113295614     2.8030437610
 H     -0.4929268620    -0.1821459311     0.1169407549
 F     -0.5541421317    -1.0888459749     0.2395650646
          8
Energy: -26.65012678649154 Kcal/mole
 H      0.1940708104     1.5104631024     1.0555274555
 F      0.1043576084     1.2579399270     0.1785596184
 H     -0.0512757867    -1.3691325320     1.9920266803
 F      0.1478258585    -1.1938789750     2.8698271848
 H      0.3540520116     0.4791132270     2.9272264154
 F      0.3612534765     1.3776320508     2.7441934616
 H     -0.1691514892    -0.3915311918     0.1488263392
 F     -0.3099550585    -1.2655335859     0.3879563667
          8
Energy: -26.47615497168826 Kcal/mole
 H      0.8348492174     1.2639258299     1.0168347690
 F      0.9801784621     0.9355010576     0.1730897959
 H     -0.1519547297    -1.4301552542     1.8403691685
 F     -0.1400915218    -1.2926454259     2.7469227032
 H      0.2396105942     0.4043674184     2.8878499460
 F      0.4414373247     1.2680522268     2.6550334462
 H      0.3520972001    -0.6180658879    -0.0227981467
 F     -0.0314750053    -1.4261843222     0.1789590323
          8
Energy: -26.68853931496352 Kcal/mole
 H      0.5272193389     1.2390666335     0.9193433421
 F      0.5722948610     1.0123888474     0.0319458108
 H      0.1470305709    -1.6216752266     1.8311318791
 F      6.880043E-40    -1.3970081740     2.7080569435
 H      0.2612502911     0.2703294631     2.7604655280
 F      0.4376113669     1.1495628770     2.5688033905
 H      0.5119252106    -0.7143093068    -8.664638E-40
 F      0.4543478905    -1.6011656338     0.2250974881
          8
Energy: -26.644018289861407 Kcal/mole
 H      0.3866656246     1.2931858580     0.7908708470
 F      0.5993286601     0.9827245344    -0.0453571122
 H      0.0471668471    -1.5901923580     1.7651813668
 F     -0.2470723385    -1.3254164465     2.5923488337
 H     -0.2298472827     0.3705008477     2.5930132481
 F     -0.1519052016     1.2614153664     2.3903180279
 H      0.6622330960    -0.6649589055    -0.0161708783
 F      0.6410919933    -1.5639299376     0.1635320353
          8
Energy: -26.74114537370616 Kcal/mole
 H      0.3147490761     1.2695494426     0.7370579980
 F      0.7800855016     1.0606250579    -0.0249798046
 H      0.0620859617    -1.5752408416     1.7626306857
 F     -0.3241638754    -1.3681728976     2.5681261418
 H     -0.4899869269     0.3144712227     2.4741148084
 F     -0.4879424893     1.2008398965     2.2390926937
 H      0.7931569546    -0.6156218304    -0.0127638628
 F      0.7465251710    -1.5072112192     0.1964796279
          8
Energy: -26.80334171631543 Kcal/mole
 H      0.4548419583     1.2798433495     0.8623983164
 F      0.8563717696     1.0571658230     0.0686240854
 H     -0.0345873249    -1.5375321915     1.7121814916
 F     -0.3539457030    -1.3429857907     2.5494693300
 H     -0.3521434663     0.3426295245     2.5783631902
 F     -0.3120922346     1.2297467408     2.3496538915
 H      0.7574910243    -0.6277959975     0.0022071807
 F      0.5977390321    -1.5142756950     0.1740269902
          8
Energy: -26.824252399353753 Kcal/mole
 H      0.5677125240     1.2266352472     0.9206847161
 F      0.9837004148     1.0058485425     0.1338579844
 H     -0.0013529780    -1.5556029284     1.7370409996
 F     -0.3048438398    -1.3619260613     2.5804101761
 H     -0.3190407544     0.3089240662     2.5835418059
 F     -0.2183831783     1.1981222344     2.3833327402
 H      0.7937518308    -0.6328207198     0.0145719488
 F      0.5958154802    -1.5140091451     0.1733710678
          8
Energy: -26.84155530654553 Kcal/mole
 H      0.5863280471     1.2211464053     0.9317330217
 F      0.9827129043     1.0061397129     0.1332718973
 H     -0.0034888838    -1.5706048905     1.7398658688
 F     -0.3047305349    -1.3611302418     2.5802603233
 H     -0.2881792204     0.3002553771     2.6072712419
 F     -0.1850796528     1.1896520678     2.4091980089
 H      0.7917330755    -0.6309840772     0.0224793408
 F      0.5959225705    -1.5141065748     0.1729515989
