          3
Energy: -0.00209007365328349 Kcal/mole
 Ar    -4.0898872540     4.2497611685    -0.6199468605
 Ar     6.3699240627    -6.3291389678     6.7324249662
 Ar     3.0920882908    -1.1046531362    -4.4552710263
          3
Energy: -0.018775640194284383 Kcal/mole
 Ar    -1.7220567859     7.2065972842     4.9441484597
 Ar    -4.7337423092    -5.3270532522     1.6200543304
 Ar    -2.3132174991    -5.9666485301    -4.4022649882
          3
Energy: -0.17695519183597733 Kcal/mole
 Ar    -5.8047844716    -0.4117851145    -1.4166666440
 Ar     3.5681249153    -3.5832321863     3.9742852847
 Ar    -3.6112109956    -3.1319662810     1.1250627531
          3
Energy: -0.47637425026771674 Kcal/mole
 Ar    -1.4719133489     5.2193589380    -4.9051336916
 Ar    -5.0900710193     5.9093450155    -4.4447319243
 Ar     0.2539341772     2.0627721651    -3.7059341030
          3
Energy: -0.15955563400594214 Kcal/mole
 Ar     2.4977718323     4.9606564207    -4.7059250282
 Ar     2.4594624475     0.0386304490    -2.5700716427
 Ar    -2.1634706362     5.8871053218    -5.6914552377
          3
Energy: -0.2816078109952968 Kcal/mole
 Ar     0.7777036014     0.3855359067    -3.7204842963
 Ar     4.5685040171    -0.0239712069    -6.4750215028
 Ar    -0.9000936688     4.0619804163    -2.0630403872
          3
Energy: -0.22879331989306442 Kcal/mole
 Ar     5.5318728334     4.0770443067     1.0336077792
 Ar     0.9221542673     3.0157355228     3.9976669679
 Ar    -1.3365879844     4.6083047185     0.6808057888
          3
Energy: -0.587866765292312 Kcal/mole
 Ar     0.1218098488    -3.6656587862     4.2706100926
 Ar    -2.3582135465    -2.5386805299     7.3211186904
 Ar     0.4598524633     0.2001330312     5.9093126993
          3
Energy: -0.6597115622675422 Kcal/mole
 Ar    -4.1860625446    -6.1404831402     1.8297562361
 Ar    -2.3341783878    -4.1125255168    -0.9509747213
 Ar    -4.2859136820    -7.1641887970    -1.6598959148
          3
Energy: -0.7016944386234831 Kcal/mole
 Ar    -3.9040281737    -5.8611076852     1.9632379526
 Ar    -2.4986764447    -3.9781547455    -1.0472921187
 Ar    -4.3337639222    -7.2860453101    -1.5550882982
