          5
Energy: -0.6279171547271534 Kcal/mole
 Ne    -1.9197569784    -1.6074830008     1.8236935689
 Ne    -0.6795565916    -1.2278332389    -1.0275437533
 Ne    -0.4800904756    -3.9629415743     3.2376171594
 Ne    -0.9778462633    -4.0858042814     0.1681244399
 Ne     1.1423165470    -2.1120072181     1.3246744133
