          5
Energy: -0.627848954217758 Kcal/mole
 Ne     5.1655065208     0.3071692820    -7.4884000248
 Ne     2.7865559402    -1.6416455071    -8.1122964125
 Ne     5.6465771374    -2.7637895414    -7.7624016464
 Ne     4.1196320403    -1.6675794585    -5.2879229787
 Ne     2.3936604225     0.7797461947    -6.1719732704
