          5
Energy: -8.282679124639606E-4 Kcal/mole
 Ne    -2.9518299373    -6.4356266578    -0.2324326626
 Ne    -7.7496424121     7.4466013741     6.1806340975
 Ne    -2.5346996152     0.6743546045    -4.8573813204
 Ne    -8.0459686498    -3.9892913690     6.0464287252
 Ne     7.6205380807     5.0795626753     4.7251076268
          5
Energy: -0.012524330046732 Kcal/mole
 Ne    -6.6176676434    -4.4300514794    -5.3881450569
 Ne     6.7824773299    -7.0733666622    -4.5631370083
 Ne    -6.5262640154     0.5887725088    -5.9816972073
 Ne    -2.0202332418     1.4223395223    -1.0156425100
 Ne     1.2369918274    -1.4761761436     2.8452634724
          5
Energy: -0.024416193982622084 Kcal/mole
 Ne    -7.5169810260     2.5236706469    -5.9802669530
 Ne     2.8649846405    -2.3519330186     5.3159302398
 Ne    -2.3120052750    -6.2325850568     3.1323210694
 Ne     6.2785842606    -3.8754857184     3.5125728291
 Ne     1.5175951093     7.3133094711     5.5938161529
          5
Energy: -0.054536030418171684 Kcal/mole
 Ne    -0.2607753846     6.2274019278     6.4198085373
 Ne    -7.9989020084    -5.4830588123     0.3024893546
 Ne    -7.9595589609    -1.1856776748    -3.2614662479
 Ne    -4.8286033001    -6.1684441721     1.7133457810
 Ne     7.3943392068     3.8731012409    -6.4692642809
          5
Energy: -0.05015728882124661 Kcal/mole
 Ne     2.0166257664    -5.3924474621     1.3552255420
 Ne     1.9485284222    -5.8350437725    -3.0742293715
 Ne    -3.5836913793     5.6529426109    -5.5141310667
 Ne    -5.9116310721     7.6535185675    -3.1880880611
 Ne     3.6787927409     1.5143200200    -4.8546184209
          5
Energy: -0.06163765276830855 Kcal/mole
 Ne    -2.5621652158     0.1641322353    -2.5046494937
 Ne     3.2890315091    -5.9476344787     0.6238379853
 Ne    -0.1311209632    -6.7675713039     2.7884420754
 Ne    -2.0711060954     3.8512120920    -3.0800673163
 Ne     4.1946649878     1.4752777129     7.7792151837
          5
Energy: 0.005943471060616053 Kcal/mole
 Ne    -5.8467749053     5.6049226728     4.8608140432
 Ne    -5.9260257572     0.4631296492    -0.3701838080
 Ne    -1.4442549785     6.1706734633     0.7585178579
 Ne     1.0859068178     7.0240915421     0.2804725378
 Ne    -4.1124090895     4.0126335933    -1.8982080150
          5
Energy: -0.02081539264486753 Kcal/mole
 Ne     6.1004214723    -6.2566973030     1.1656571825
 Ne     0.2949157004    -2.0570382742    -7.5634835272
 Ne    -4.2294619931     0.2471693632    -3.2719925259
 Ne     1.5583827534    -4.3177158406    -4.0669006965
 Ne     4.4348645792     3.9245691116     7.0939741867
          5
Energy: -0.13269443633662162 Kcal/mole
 Ne    -2.7277260423    -1.8249202086     2.3451785275
 Ne    -1.4826345206    -0.9896615369    -0.9486964139
 Ne    -0.7611558118    -2.8653837215     5.4680204633
 Ne    -2.6003107400    -4.6923544454    -1.1476366930
 Ne     3.6477038366     1.0347032266     4.6787166724
          5
Energy: -0.6279171547271534 Kcal/mole
 Ne    -1.9197569784    -1.6074830008     1.8236935689
 Ne    -0.6795565916    -1.2278332389    -1.0275437533
 Ne    -0.4800904756    -3.9629415743     3.2376171594
 Ne    -0.9778462633    -4.0858042814     0.1681244399
 Ne     1.1423165470    -2.1120072181     1.3246744133
