          5
Energy: -0.6278281353627253 Kcal/mole
 Ne     2.2755687273    -1.1897904769     2.2786230904
 Ne     5.3417987389     2.4140379509     0.4057104537
 Ne     3.6318734684    -0.0706354843    -0.3145909957
 Ne     2.6487800092     1.8941448330     1.8867357288
 Ne     5.1135165576     0.0697925320     2.4482079126
