          5
Energy: -0.010743896521937838 Kcal/mole
 Ne     2.5347346687    -1.3240912762    -4.6221269048
 Ne    -0.9977875899     3.5768158342     0.6091545409
 Ne    -1.5251142551    -3.1878839086    -0.9307345051
 Ne    -0.9313019195    -5.2766144105     4.8810436126
 Ne     3.4275904253     0.0071903174     4.1867319345
