          5
Energy: -0.04836214476097654 Kcal/mole
 Ne    -7.9781779216    -2.6384327825    -1.2510088038
 Ne    -5.7395440202     4.0646259921    -7.7978931927
 Ne    -3.5676874703    -4.9977590375     2.1588477899
 Ne    -3.6782433811     4.2850266811    -3.6435437391
 Ne    -5.2659068353     4.8950067899    -0.1459902338
          5
Energy: -0.03823021710265908 Kcal/mole
 Ne    -6.7272588463     7.2239806944    -5.7083344165
 Ne     0.6526977509     5.1941898011     2.0515766358
 Ne    -3.1695356795    -3.0355520077    -4.5850674418
 Ne     0.1269216737     2.1707457003    -1.2799762997
 Ne    -3.7517487128     7.9576498588    -2.8118129539
          5
Energy: -0.023153234110721153 Kcal/mole
 Ne    -4.0104175746    -7.0053247468    -1.3275270804
 Ne    -7.9352757410    -5.7965999699    -0.8067091460
 Ne     4.6920811071     7.3746353039     6.1438687323
 Ne    -1.4767773895     6.6289852155    -5.0063606552
 Ne     5.3453767660    -5.9759326151     5.1537448710
          5
Energy: -0.0029291871372979852 Kcal/mole
 Ne    -0.6256179400    -7.6794682589    -3.5755425338
 Ne    -6.4420469699    -7.0959418021    -0.2919539825
 Ne    -2.9563220205     4.3870326289    -1.0819907718
 Ne     2.8323504437     0.2704475759     3.3148376114
 Ne    -7.8950209750     8.1142896588    -4.6444948353
          5
Energy: -0.007406405859403991 Kcal/mole
 Ne    -5.4496050754    -4.0849697760    -1.7928225998
 Ne     4.4187672703    -6.4018264962     5.8739726834
 Ne    -0.4046157619    -4.3214858794    -0.7071143821
 Ne     5.3000324899     2.8736357476     1.9494789634
 Ne    -6.6729506452     5.2731854437     3.2168992899
          5
Energy: -0.001919349989082065 Kcal/mole
 Ne    -5.6666220839    -5.0332281724     5.5812883483
 Ne     6.3390914422     5.2339379313     8.0262782151
 Ne     1.4725706252    -3.5171082043     5.0246682471
 Ne     6.5123936931     0.6307520778    -4.1576142368
 Ne     2.7606292332    -8.1807860763    -0.7387797163
          5
Energy: -0.038178944007234164 Kcal/mole
 Ne     6.9684971405    -2.9705797904     1.0592188154
 Ne    -8.2360060314     4.5831167306     3.7198541491
 Ne     6.3363390417    -3.6616758683    -2.8660708432
 Ne     1.6145932220    -3.2595427845    -1.2836693368
 Ne     0.7428082738    -7.2016281145     5.9575870635
          5
Energy: -9.077228938347491E-4 Kcal/mole
 Ne    -4.4810297050     5.4275331409    -5.3667360568
 Ne     2.8647533928    -7.7031896752    -6.4561488719
 Ne     7.6710450516     7.8464602032     5.6556599799
 Ne    -0.1871729412     4.2658438232     4.9173419941
 Ne    -4.6497279390    -6.2357263082    -3.8527591703
          5
Energy: -0.04066256691469711 Kcal/mole
 Ne    -5.0469410009     0.1203751839     1.2605954666
 Ne    -5.3811743246     5.7293598577     5.0254697543
 Ne     8.1731844434    -5.0032366519    -3.5927674396
 Ne     7.4293316018    -7.0862903598    -0.3637863337
 Ne     4.2341461654    -2.1313163149    -4.8585625085
          5
Energy: -0.2761244366209443 Kcal/mole
 Ne    -2.9891056091     0.1895809389     4.5267578475
 Ne    -4.9151203058     1.4269740734     6.6453573625
 Ne     8.0110588919    -4.7948938635    -3.0335799515
 Ne     5.3825151185    -5.0162751525    -1.3604305529
 Ne     5.4051562257    -3.4057244604    -4.0367396876
