          6
Energy: -0.12017139128693469 Kcal/mole
 He    -0.7799636956     2.7988546532     2.1356649388
 He     3.1126794804    -0.6086180256    -7.4230536606
 He     3.0781917220    -2.2548141947    -5.0707509201
 He    -0.3973910240     1.5237691227     4.6776123963
 He     4.4573620266    -3.1433195504    -7.4288122601
 He     0.1873988234     0.0981926386     2.2558961864
