          6
Energy: -0.24593619821377893 Kcal/mole
 He    -0.0114182180    -0.3390141408    -5.1560791255
 He    -1.3327824005    -2.3489945112    -3.5989654891
 He    -2.4760505987    -1.4179121370    -6.0877830679
 He    -2.6510194793    -4.1587501749    -5.3519358212
 He    -2.4825810044     0.2607822350    -3.7959101949
 He    -0.1121917249    -3.0494736680    -6.1073618453
