          6
Energy: -0.02044283394183156 Kcal/mole
 He    -6.4547059862    -3.0410625360     6.8410709459
 He     4.8463448688     2.4784613502     1.6662943166
 He     6.1542825967     4.3143301163     0.0396652658
 He    -0.5515467996     3.9361673435     3.9217120955
 He    -3.1133299223     6.7201121675    -0.3724909813
 He     6.8843207957    -5.2114675972    -7.2642964151
          6
Energy: -0.002839559696448234 Kcal/mole
 He     3.9762504843     6.7644622543     3.7015566600
 He    -3.2581193488     7.0314757838    -0.7540144824
 He    -6.8228852270     0.0011486537    -6.8618785417
 He     5.5243985533    -3.7115930766    -4.9727021581
 He     4.0424518713    -4.1774357234     1.9462714257
 He     0.7910775469     4.7049843646    -1.0703133430
          6
Energy: -0.001696046031181824 Kcal/mole
 He    -7.2549112211     1.6888419427    -3.9172964533
 He    -7.2252505698     5.1348696675     3.1583224035
 He     3.6329217897     2.7812458239     6.3978826078
 He    -2.3646100234     6.1839579517     2.2181836104
 He    -5.0421292403    -4.7793409249     4.0980165309
 He     1.2764747434    -6.1398629899    -0.6054416927
          6
Energy: -0.0016085560093768174 Kcal/mole
 He     6.9347360506     1.2165832849     0.2121791144
 He     1.8690811267     7.4142246645     4.2946151196
 He    -6.1262146437    -0.6485647156     1.9466677560
 He    -0.3312625265    -0.5046633019     3.0422391041
 He    -1.5660632179    -2.0182267488    -5.5749863675
 He    -0.1743522605    -6.1970624567     3.1145104158
          6
Energy: -0.021129340921036018 Kcal/mole
 He     5.5271174523    -6.7601064429     6.3870648576
 He    -1.5150607883     5.1603534004    -5.8924790945
 He    -0.7820799075    -7.3794572341    -4.4730274126
 He     2.9656273841     3.8677633623    -4.7330559696
 He     2.6047333712     5.7590034293     7.4703534062
 He     1.0678443494     3.3969662960    -2.3362137164
          6
Energy: -0.005149135844824263 Kcal/mole
 He    -7.3931475830    -2.5419741671     4.9022966639
 He    -3.6368003121     2.9397475456    -1.6866640132
 He    -1.0242046522     6.6566786968     6.4170708279
 He    -4.8589791840     4.2221568106    -6.3548376210
 He     6.1482653890     5.1551412823    -2.3824169422
 He     2.2908606541     6.6728580093    -3.5405080294
          6
Energy: -0.010018503454056377 Kcal/mole
 He     1.0588581533     0.6401101577     0.5021828674
 He     0.7903565210     7.3010000123     0.9596546801
 He    -5.0982495736     6.1529268019     2.3842095555
 He    -3.6531555909     2.7040998081     2.1664331484
 He    -6.7103296613    -1.9394508921     3.5071530835
 He     7.2597076100    -4.0450600360    -0.3239525876
          6
Energy: -7.038687625294101E-4 Kcal/mole
 He     7.3866170427     6.6797920402    -5.5451236807
 He    -4.9505896451    -1.4352823925     7.4855952064
 He    -4.9051992517    -6.8121125632    -4.4337743680
 He    -4.7435243485    -2.3626834783    -0.4245549215
 He    -4.3736693027     5.3258823173    -5.8498716023
 He    -1.8892050941     6.3227842266     5.3455131669
          6
Energy: -0.02268070442724466 Kcal/mole
 He    -7.0393091334     6.9595769393     0.5447415987
 He     1.6203081202     1.1047838352    -5.6976179295
 He     3.5735358195    -2.2650200257    -4.7381922673
 He     2.0594399934     4.5476806056     2.9010010131
 He     3.7494379715    -3.8015009759    -7.4505763827
 He     1.3935907502    -5.6104118963     4.0320448954
          6
Energy: -0.12017139128693469 Kcal/mole
 He    -0.7799636956     2.7988546532     2.1356649388
 He     3.1126794804    -0.6086180256    -7.4230536606
 He     3.0781917220    -2.2548141947    -5.0707509201
 He    -0.3973910240     1.5237691227     4.6776123963
 He     4.4573620266    -3.1433195504    -7.4288122601
 He     0.1873988234     0.0981926386     2.2558961864
