          6
Energy: -0.0046242959454250885 Kcal/mole
 He    -4.4399408216    -2.0028451702     2.7899796126
 He     3.7888749106     4.1280614047     3.4062097800
 He     3.3112036870    -1.3725202443     3.0484698424
 He    -1.0934244767     1.8903651815     3.7028682865
 He    -1.4409764750    -3.9571504190    -4.0532138992
 He     3.9839388801    -0.5288755502    -3.2515406010
