          6
Energy: -0.24599075980212642 Kcal/mole
 He     2.6962652454    -4.4934940568     0.3655107586
 He     1.3871256660    -3.6249272017     2.7554980783
 He     0.5318987104    -5.8125588678     4.3751776113
 He     0.6764394604    -6.1325193898     1.5428265764
 He    -1.3538527336    -4.4712950910     2.6944470415
 He    -0.0328560401    -3.6675979338     0.2802277783
