          6
Energy: -0.00286809968087069 Kcal/mole
 He     7.1852230486    -5.2021179291     6.0062546455
 He    -2.0276763499     3.0613746482     4.1690828437
 He     6.3116691949    -2.1016882409    -0.8424593050
 He    -3.7372720862    -5.5966978894    -6.3797134223
 He     2.8658369961    -0.8995456289     1.9545931435
 He     6.2949695211     6.9181904949    -7.0925994480
          6
Energy: -0.004402969061584296 Kcal/mole
 He    -1.5319966936    -4.8064804709     7.2979516669
 He    -3.1123306352    -4.7673950902    -1.8630535940
 He     4.2870972175     4.5814896743     4.6066133079
 He    -6.2612903302     1.6083848996    -3.3921584832
 He     7.1495419871    -3.4740390722    -0.9830500335
 He     2.2648480391     2.3161769248     7.4557999215
          6
Energy: -0.0016326246995864192 Kcal/mole
 He    -1.6558962026    -2.4438013098     1.7230263304
 He     6.4953496815    -6.6206396469    -1.1683962664
 He     6.9269776797    -0.0718881223    -2.6838588678
 He    -5.7012469619    -7.3298309555     7.3939154483
 He    -3.1491544784     1.0327777234     5.1876533216
 He    -3.7465167314     3.4597840940    -7.2972368798
          6
Energy: -8.69249561089357E-4 Kcal/mole
 He     6.1407026189     4.5858792416     2.6202503824
 He     4.2673328982    -2.2696744465    -0.2655865369
 He    -4.3659054068     0.3624326903    -7.3505899433
 He     6.6790340781    -7.1287363297    -2.7117016587
 He    -5.4084283911    -5.5426704670    -2.9244608104
 He    -4.4498722006    -0.4533962969     4.2783514405
          6
Energy: -0.008531883878043791 Kcal/mole
 He    -1.3814372396     5.0222729447    -6.5734508367
 He    -7.2364394464     6.1174423936     0.3813355486
 He    -4.2137707496     2.3885274864     6.2970974535
 He    -6.6530958521    -1.4858304874     4.3423805674
 He    -2.5961563340     1.4160756036    -6.7290650360
 He    -3.0970891737    -7.3742530430     2.5490844609
          6
Energy: -0.008587327797982212 Kcal/mole
 He     2.3741996659     4.3771715280    -2.1215820938
 He    -1.8799882572    -1.2750667099    -4.7579840990
 He     0.8172064479    -1.8643781598     3.6788554007
 He     5.8842843824     4.9008590403    -3.6130000487
 He    -4.2850929765    -2.8543294080    -0.6517313723
 He     7.0926022568    -1.6606421995    -3.5587021656
          6
Energy: -0.001344666907751523 Kcal/mole
 He    -1.9547859834    -2.1811492115     6.2631275759
 He     3.3504166446     6.5503528268     4.2069728367
 He     2.5635097279    -5.2627132633    -5.3133346478
 He     6.2684551092    -0.2354807110     4.9082599927
 He    -0.7021468710    -5.4209135816     0.9454695644
 He    -2.3885325997     7.3837368658     3.2183754134
          6
Energy: -0.009082381099521168 Kcal/mole
 He     1.5118599069     1.4155502377    -6.5378468084
 He    -7.4949643624     0.4217811815     2.4955608668
 He     1.2268677771     6.4637567811    -5.8426345904
 He     2.9177368801    -7.1975275583     6.2847764155
 He     0.8243139255    -2.1954402016    -5.6628928950
 He    -2.2336716959     2.5712156945    -1.1336371462
          6
Energy: -0.011030204345170758 Kcal/mole
 He     4.0009678281     5.2550994829    -7.2843943552
 He    -3.7967153092     2.5041573227    -2.8477117226
 He    -2.6799150019    -2.0093176012    -6.0761284042
 He    -5.9177785252    -2.3407122599    -7.4646067980
 He     3.4555687930     6.8221377087     4.5708681153
 He     2.6109683554    -5.8189279013    -5.4876955765
          6
Energy: -0.24593619821377893 Kcal/mole
 He    -0.0114182180    -0.3390141408    -5.1560791255
 He    -1.3327824005    -2.3489945112    -3.5989654891
 He    -2.4760505987    -1.4179121370    -6.0877830679
 He    -2.6510194793    -4.1587501749    -5.3519358212
 He    -2.4825810044     0.2607822350    -3.7959101949
 He    -0.1121917249    -3.0494736680    -6.1073618453
