          6
Energy: -0.03708324942871983 Kcal/mole
 He    -0.7446137919    -4.5325070192     3.7989484074
 He     0.9244552928    -0.4883458232     3.4893978683
 He    -0.0755022792     0.4849348742     5.5207750324
 He    -1.5535650432    -1.9348043029     4.4797071311
 He     7.0498210586     0.2849049740    -7.4021804378
 He     4.5299635749    -4.4464135377    -7.2791767584
          6
Energy: -0.0158441151629924 Kcal/mole
 He     6.2219738425    -4.5003490496    -0.5945188241
 He    -6.0572425445    -3.5863168462    -3.1644931208
 He     1.1925658168    -7.3728621080     5.1866245219
 He     3.9962462265    -5.9760918597    -2.4186050152
 He    -7.0420803354    -3.5936750337     2.1848879868
 He     1.5909348157     4.9448618440    -6.0930767357
          6
Energy: -0.02535815481505953 Kcal/mole
 He    -0.1948461439    -7.0778791214     5.9709671222
 He    -0.2056330986    -0.5420927100    -3.7051426569
 He     0.9894662661    -0.5030853314    -1.3666048295
 He     1.8544737204     6.5454892407     1.3495029314
 He    -2.2685450600     1.2542210103     6.2901135374
 He     1.8175746518     1.7056519077     1.0602854066
          6
Energy: -8.70494856732038E-4 Kcal/mole
 He    -4.6791759184    -3.7131171322    -7.1383491395
 He    -2.3595074353     3.2196877133    -3.6591393414
 He     3.0213584653    -5.0195705233    -1.2631518391
 He    -2.4335140654    -1.9765489546     0.7092782278
 He    -7.4845705768     2.4088273958     6.0043842381
 He     5.7906278020     4.9643462808    -3.4513835765
          6
Energy: -0.0015572495088729387 Kcal/mole
 He     3.9492535176     6.8329450060     6.9738009574
 He    -4.3124853454    -6.3379855201     3.8232157543
 He    -5.6453572418    -0.6055472622     0.2751853327
 He     6.4918725239    -6.7760181273     6.8421956025
 He    -1.1092402637     0.4129913736     3.8934661849
 He    -6.0955665173     2.0817039805    -4.8566976113
          6
Energy: -0.001499361852379209 Kcal/mole
 He    -6.0313702680     0.7463192129     2.5722863732
 He     2.5805271377    -6.0934624359     3.9163026733
 He    -3.3746628416    -5.8382546629     3.9319571781
 He    -5.4759723162    -6.1220161039    -6.9055735965
 He     4.1647295629    -2.5780384403    -2.6816121436
 He    -2.3327061988     1.2850624044     7.1210857112
          6
Energy: -0.00999499197002496 Kcal/mole
 He     1.5946904405     1.6383506470     5.2582711144
 He    -7.0060491657     5.3924532497     3.5782259368
 He     2.9014926346     0.4278130794    -1.1176324774
 He     6.9264728312    -5.6704445047     1.9911259369
 He    -5.9828123073     4.6854517497     6.9226822699
 He    -6.5275445683    -2.7789049426     2.0189949585
          6
Energy: -0.004250506501125496 Kcal/mole
 He    -2.4538755001    -5.7012484189     4.1969720207
 He     5.2175305274    -7.2473314813     3.2539397648
 He     6.4136430035     0.8337414664    -4.7197402961
 He    -6.0860009951    -1.8228237692     4.1399973422
 He    -1.3001327186     4.2611522171    -0.6922296039
 He     3.4327321811     3.1139385374    -1.5456958111
          6
Energy: -0.018686061859545924 Kcal/mole
 He    -6.5802948711    -1.2465520437    -0.4206371005
 He    -6.7486142933    -5.0106121140    -6.5855440032
 He    -7.2936732685     4.9853889924     3.9828844777
 He    -4.0450133255    -4.6264921643    -6.3411423275
 He     1.5003969658    -6.6407818813     3.3648731299
 He    -0.6307135600     1.3050503956     5.9918190329
          6
Energy: -0.24588530550676044 Kcal/mole
 He    -3.4163297410    -0.9323517149     2.2360926962
 He    -6.1871641495    -0.6771320162     1.6018829704
 He    -4.7586249338     1.6088468976     2.6014013518
 He    -4.2454236061     0.6253169534    -0.0315887686
 He    -2.0852574224     1.5450699060     1.6016134944
 He    -2.6225620134     0.8307913843     4.3115989834
