          4
Energy: -0.1639746580382756 Kcal/mole
 Ar    -3.5580757771     7.3656145706     6.1834435017
 Ar    -4.7810264846    -1.0908530195    -1.4952527478
 Ar    -6.3548740421     5.1831185387     3.5515259345
 Ar     2.9950977057    -1.4265863420     2.6414662838
          4
Energy: -0.1302195817938247 Kcal/mole
 Ar     0.7028932044     6.8624568817    -5.6852946417
 Ar     1.5602058876     3.4764514920    -0.5461555412
 Ar     0.1744463036     6.1867470472     6.5318851053
 Ar     5.8251150106     5.3811588164    -2.7549347979
          4
Energy: -0.34016938247782796 Kcal/mole
 Ar     5.3242110859     5.0345345173     1.4268416778
 Ar    -6.2036160894     3.1468206857     1.2862030825
 Ar     4.4785237462     7.4390103572    -2.3967333654
 Ar    -5.0823830734     6.8638991710     2.5374337484
          4
Energy: -0.32555214382226794 Kcal/mole
 Ar    -5.6742379024    -5.3484628408    -0.4292260111
 Ar    -4.2268575129    -0.9758951715    -2.2987604859
 Ar    -0.4077424571    -2.8094741351     0.6712365763
 Ar    -0.4896080384    -3.7801885939     5.1587192134
          4
Energy: -0.6176179545127132 Kcal/mole
 Ar    -3.3761832090     3.8465511799     0.2823435015
 Ar    -3.1844694751     6.0343614616     3.1663433198
 Ar    -1.4804148009    -2.5367886180    -3.1608525839
 Ar    -1.7926368836    -0.2052283107    -0.1114037923
          4
Energy: -0.37622908420734846 Kcal/mole
 Ar    -4.6203197992    -2.8321151552    -6.0460453323
 Ar    -3.7209120359    -7.2323389923    -1.0321735434
 Ar    -5.3949992512    -3.4822210870    -1.8320399799
 Ar    -5.8252486293     6.0138141500     3.3824328569
          4
Energy: -1.1724665454841376 Kcal/mole
 Ar     3.1379967103    -5.6214400615     0.6043375592
 Ar     0.9912008297    -6.1871080306     3.6040798477
 Ar     4.6425899716    -6.8733147505     3.8757847853
 Ar     5.4125382273    -3.3430627404     3.1970497078
          4
Energy: -1.2075491103280407 Kcal/mole
 Ar     2.0212244357    -1.6922831183     0.5260642282
 Ar     2.0521900929    -5.6653527124    -2.1061787904
 Ar     2.7205903313    -5.6455526613     1.6373418600
 Ar    -0.7773261616    -4.6742063836     0.3691404402
          4
Energy: -1.3578444792955209 Kcal/mole
 Ar     5.2609577142     3.9062802585     2.5201520446
 Ar     7.1677502016     0.6082833745     3.5407069317
 Ar     4.1458739615     1.9755865572     5.5643517709
 Ar     3.8687779297     0.5537025656     1.7733151278
          4
Energy: -1.4031317761012125 Kcal/mole
 Ar     5.2296089291     3.8270669831     2.3630052825
 Ar     7.1827317165     0.7701997361     3.5831801301
 Ar     4.1510767205     2.0139151525     5.5521485333
 Ar     3.6852382813     0.3314583880     2.1483739499
