          4
Energy: -0.2876706502510852 Kcal/mole
 Ar    -7.0853427396     1.9643069519    -5.4874675010
 Ar     5.4806088275     1.4473248666     4.1657540715
 Ar    -0.8408282778    -2.6386126052    -6.7168031195
 Ar    -6.1556996083    -1.7414159032    -5.4173959994
          4
Energy: -0.20576257851297236 Kcal/mole
 Ar     5.0953018917    -4.8312930338    -5.1445937434
 Ar     2.6038544728    -1.5432876818    -5.1207799762
 Ar    -6.3803083974    -4.7710003512    -6.8970411929
 Ar     3.9023740618     2.1963898238     4.2226070559
          4
Energy: -0.15235397818546859 Kcal/mole
 Ar     4.8386078674    -0.1089765965    -1.7024706951
 Ar    -3.5818435835    -3.9271178394     2.2452534057
 Ar     1.3466471337     0.1461692802     1.7268884097
 Ar     1.7551451400     6.0770859656     0.2960964182
          4
Energy: -0.3105031935418134 Kcal/mole
 Ar     0.8917514732     7.4621840610    -2.0452756498
 Ar    -4.0453291843     5.6115520652    -0.2338778125
 Ar     0.8994413030     0.6085579230    -4.5441507833
 Ar     2.4425136237     5.9413531174    -5.5362764687
          4
Energy: -1.0119496451874266 Kcal/mole
 Ar     3.7892221126     4.4543708151    -5.2631889250
 Ar     2.0160080331     7.1359107134    -2.6699217069
 Ar     0.8941453548     3.1395956090    -3.5829267863
 Ar     5.4533017363     6.1790569186    -2.4885271889
          4
Energy: -0.560856636164292 Kcal/mole
 Ar    -3.8062368979    -0.9999299739    -5.1879865656
 Ar    -2.8916648839     1.6937831507    -7.2088287680
 Ar    -4.5914251841    -3.2861217746     0.6577193277
 Ar    -2.4896827360    -2.7414996544    -2.3606664206
          4
Energy: -1.1619422292261647 Kcal/mole
 Ar    -2.5490224279     4.4023605045     5.5431780133
 Ar    -3.1145914617     7.1892530232     3.4664431892
 Ar     0.3273233297     6.6607316786     5.7732216314
 Ar     0.1654342434     5.4675213596     2.1699963916
          4
Energy: -1.1484228011369404 Kcal/mole
 Ar    -0.3795428755     7.1251639530    -3.6033957306
 Ar    -2.4547669534     5.3535758015    -0.0193939923
 Ar    -0.1219455035     3.2634020780    -2.9488256684
 Ar    -3.4270685147     4.5364030928    -4.2227808764
          4
Energy: -1.3103788044558435 Kcal/mole
 Ar    -3.1550350451     2.1157234729     3.4148798694
 Ar    -6.5685038915     4.5883709226     4.0021384677
 Ar    -5.1748639683     3.8033705263     0.7348403771
 Ar    -3.1611441446     6.0257627751     3.2564487402
          4
Energy: -1.403319358670022 Kcal/mole
 Ar    -3.3249722925     2.4285124045     3.6131936272
 Ar    -6.5135382924     4.4747092145     4.1011821764
 Ar    -5.0919386562     3.9502989984     0.5950265741
 Ar    -3.2725306265     6.2100891813     3.0911897994
