          4
Energy: -0.16230806393836417 Kcal/mole
 Ar    -2.9778011357     3.6406905344     1.6380637749
 Ar     2.0431170949     3.7031932409    -5.3374873954
 Ar    -4.5444010709     4.6530189447    -6.1781285838
 Ar     4.6205763763     1.1112218221    -2.6202427462
          4
Energy: -0.02072880622046395 Kcal/mole
 Ar     5.7952706619     3.7676863367     4.8327330824
 Ar    -0.8594503462     4.4452351396     4.3495862712
 Ar    -5.3724219383     1.8056417111    -4.6754610021
 Ar     6.4782496118    -3.0072664203    -0.8248304907
          4
Energy: -0.09118703800041457 Kcal/mole
 Ar     0.0061526958    -2.5031062318     4.9529425091
 Ar     1.2046552573    -4.4823416030    -3.4826778120
 Ar     6.7664946696     7.3769859368     2.8218851101
 Ar    -3.6674105758    -5.2227765884    -2.7024028801
          4
Energy: -0.016633981549977923 Kcal/mole
 Ar     5.1178349430    -4.2986867453    -5.1513421557
 Ar    -5.7268776954     2.9296644868     3.1699922607
 Ar     2.5620536383     1.8791334839    -2.3257516639
 Ar    -0.6410090419    -6.0431277875     1.9414587310
          4
Energy: 0.154436988792963 Kcal/mole
 Ar    -1.4294024073     3.8735002518    -0.6198959901
 Ar     6.6580635452    -0.1964665327    -1.5113676622
 Ar     2.2822622436     6.1958405770     2.3712840993
 Ar     5.1086485777     6.3924220621     0.6931739963
          4
Energy: -0.13348772335087572 Kcal/mole
 Ar     5.5789082310    -0.5895644049     2.9254246285
 Ar    -6.8190430436     4.7033465092     2.8654864203
 Ar     3.1471413921    -4.5868821653     2.9748044853
 Ar    -2.2503987274    -3.1628077607     7.2507023814
          4
Energy: -0.1340670742547129 Kcal/mole
 Ar     0.6938900264    -0.3943814967    -1.6686261580
 Ar    -0.6950589673    -1.1849555218     3.2831919016
 Ar     2.5310426811    -0.3730392405    -6.5958029751
 Ar     7.2343504592    -7.3873313127     4.4294243748
          4
Energy: -1.111460730215535 Kcal/mole
 Ar    -0.2653104017     3.2547844375     1.1357111578
 Ar     2.4699500557     3.1154426913     4.7333842119
 Ar     3.6111056665     2.5923104840     1.2758821127
 Ar     2.0958435134     6.4018451397     1.1243884539
          4
Energy: -1.2803908211953148 Kcal/mole
 Ar     3.8881344140    -0.8900304445    -1.9943752562
 Ar     4.4277355388     2.7688472499    -2.5451160683
 Ar     3.8279333372     1.3904005755     1.0754936676
 Ar     6.9950048903     0.6703827222    -1.1796060203
          4
Energy: -1.403137686839614 Kcal/mole
 Ar     3.4254340306    -1.0112374513    -1.8870200765
 Ar     4.2012862903     2.6714976123    -2.5421120991
 Ar     3.7422524336     1.4420811227     1.0385577870
 Ar     6.8269592645     0.4105612751    -0.9522845362
