          4
Energy: -4.4997563574947523E-4 Kcal/mole
 He     1.8387403407     2.8772521909    -1.3551562806
 He    -4.6575019237    -3.9311962115     5.2307087244
 He    -3.9506953685    -5.7519242522    -2.0192075938
 He     7.0976535721     6.6625784383    -1.7741131548
          4
Energy: -6.580933792123911E-4 Kcal/mole
 He     3.7343103685     3.5660726276    -6.0434086897
 He    -2.6289262435     7.2400337795     4.2878774526
 He     5.3274879925    -3.2727032735     6.4861689461
 He     2.0525377955    -1.6936008408    -7.4744467573
          4
Energy: -1.7897224770150124E-4 Kcal/mole
 He    -3.7148762848     6.5440633092     2.3813062818
 He     0.0968040286     5.5493522100    -4.4902743276
 He     5.8193630752     4.5033374610     2.2205028260
 He    -4.9468819925    -3.7339600609     6.1180769874
          4
Energy: -4.460720681105534E-4 Kcal/mole
 He    -6.9669735867    -0.6535382868     5.7228431854
 He     5.1768896394     6.2303216236    -4.1920678501
 He    -4.2632274581    -5.6731338246    -4.7110819099
 He    -4.8740860542     3.0090197990     1.2516925454
          4
Energy: -0.006511573983748588 Kcal/mole
 He    -2.2036796729     7.2756837608    -4.8717053467
 He     5.7548753660     1.6735984479     4.2540034449
 He    -3.2891295415     2.1665823369     2.1363140307
 He    -7.0703445980     2.0733858064     2.7671528840
          4
Energy: -0.0010140786254825677 Kcal/mole
 He     0.0904925566    -1.6917720812    -1.2962285098
 He     0.1150964738    -7.0092320168    -5.8862875764
 He     3.5000095432    -7.0009683174    -0.0943480063
 He     6.3012062483    -0.7483116690    -4.8646753270
          4
Energy: -5.179839886342149E-4 Kcal/mole
 He     1.1077455474     3.0398844879     1.7610687916
 He    -5.7146075525    -2.6370414821    -5.0089124191
 He     1.9725830929    -7.1674616878     6.7445896769
 He    -2.2447298839    -0.7803747357     5.3551803429
          4
Energy: -0.040714047673800983 Kcal/mole
 He    -4.6019409501    -2.1810429078    -0.1985521181
 He    -7.0280657018    -1.3679942309    -1.3620522758
 He    -5.4309964443     6.8141028012     4.9584619189
 He    -3.4388810652     0.2141557298     0.4035999971
          4
Energy: -0.09107242832775005 Kcal/mole
 He    -5.6323447093     2.9658482586    -0.3780700029
 He    -6.2197747083    -0.3000788470    -0.6119847892
 He    -4.0796651696     0.7698697437    -2.0314066513
 He    -7.1704705301     1.3147160868    -3.0146923395
          4
Energy: -0.11996780028909763 Kcal/mole
 He    -5.4664360928     2.8475199053    -0.5479249047
 He    -6.2284469492     0.0954688341    -0.2099745347
 He    -4.2362117901     0.8002172378    -2.1635511689
 He    -6.9790208282     1.5160268916    -2.5833257960
