          4
Energy: -2.792550536221768E-4 Kcal/mole
 He     7.2111268585     4.4307017154     2.7369083323
 He    -5.5771440101     1.3373773049    -0.5206739139
 He     2.2086179106    -6.6881882253    -4.1105812373
 He    -5.7393505266    -1.9262112692    -6.4338078844
          4
Energy: -8.3617058462749E-4 Kcal/mole
 He    -2.5364697641     5.9694431461    -6.8673711091
 He     4.5398358246    -4.8744848161    -2.2435074349
 He    -7.2411826743    -4.4693965915     3.9476220548
 He     2.4496655784     0.2411040864    -2.3017741292
          4
Energy: -0.011327851837478857 Kcal/mole
 He    -7.4594042660     4.9228626442    -0.6763155987
 He    -6.2430298041     3.8598686158     3.9542643749
 He    -4.3535559194     1.7544160091     1.1849865508
 He    -0.1922894282    -0.0534134919     1.2279418462
          4
Energy: -8.494182113354856E-4 Kcal/mole
 He    -3.7473101640     5.7389210871     4.9454967797
 He     1.3195994996    -3.3270533668     7.4651421626
 He    -3.6500175154     1.1553878162     1.8363930167
 He     2.9980658596    -1.6992779349    -6.0884326286
          4
Energy: -0.015023049659048616 Kcal/mole
 He    -4.8371085560     5.8473255314    -2.2457792827
 He    -2.9282796943     2.4596502937     6.1172466380
 He    -4.0768648488     4.4928560374     4.8073325828
 He     0.5362676665    -4.5005226247     3.9679964341
          4
Energy: -0.013271970432381399 Kcal/mole
 He     1.4164944125     3.8812125297     0.8132528469
 He     2.1246175629     7.1001659726     1.2465146138
 He     3.6594994375    -4.4494388962     2.8803796145
 He    -5.5414942703     4.8592425743     5.5706802546
          4
Energy: -0.007534309890022258 Kcal/mole
 He    -3.4258512972    -4.2420621049    -1.9904488574
 He    -0.9331691820    -1.3667884249    -3.2762555784
 He    -4.5061885198     0.1643413879     0.2485142703
 He    -5.5083843800     2.1129440215     6.8771525874
          4
Energy: -0.01911807609651534 Kcal/mole
 He    -0.1678124533     6.1356422245    -6.1016963739
 He    -5.6921037227     2.7070900223    -4.6304916836
 He    -3.4507726604     2.1697028614     1.1150333648
 He    -0.9829275111     5.5954061643    -3.1647541887
          4
Energy: -0.07546422854549645 Kcal/mole
 He    -4.6404454174     5.2665593516    -1.8875520582
 He    -5.9050231764     5.8637317411    -6.7363473464
 He    -2.1552299000     5.6806881228    -3.1415061780
 He    -4.7362600432     6.4106307753    -4.3622318076
          4
Energy: -0.1199644201094224 Kcal/mole
 He    -4.2433964969     3.6433839197    -3.7600919268
 He    -2.8849891615     4.6442312415    -6.0681632536
 He    -2.1187408499     5.5570409438    -3.4595206916
 He    -4.6493486330     6.3492872956    -4.5764363833
