          6
Energy: -17.580371825180123 Kcal/mole
 H     -7.2706350595    -6.9233815362    -3.0640811646
 F     -7.0117737727    -6.3955017835    -3.7678018484
 H     -5.8622612115    -5.4988029724    -2.7730541961
 F     -5.4837877210    -5.3789168550    -1.9464502184
 H     -6.4467894755    -6.6739492374    -1.2319450972
 F     -7.0841217261    -7.3217117663    -1.3548284095
