          6
Energy: -8.683689950626302 Kcal/mole
 H     -4.8263233550    -0.4711346943    -4.8747255609
 F     -4.2168333324     0.2114200564    -4.9341387304
 H     -2.2220668058     0.7696325093    -5.6788190248
 F     -1.3619340589     0.4608299208    -5.6033099593
 H     -0.9237578594     2.3098729403    -5.3266436017
 F     -1.2025937911     3.0692628120    -4.8948258786
          6
Energy: -11.397489857702965 Kcal/mole
 H      0.3783193339    -4.2680530557     6.6862024941
 F     -0.0977102257    -3.6080149938     7.1088543783
 H     -0.2579715530    -1.8128446026     6.2488827773
 F     -0.1751262445    -1.3930866518     5.4378162464
 H     -0.2923836555    -1.6777050892     3.5330280624
 F     -0.2717670507    -1.9521943204     2.6583169000
          6
Energy: -12.504377265751543 Kcal/mole
 H      3.0482075590    -2.8540868403    -5.6051185108
 F      2.6336156909    -3.6704459611    -5.5545184233
 H      0.7786236007    -3.5558918718    -5.4425885601
 F     -0.0224545990    -3.1692769878    -5.2196723216
 H      3.4806460794    -0.8849822907    -4.6061467202
 F      3.3338698305    -1.2304353776    -5.4428114664
          6
Energy: -11.444086098752535 Kcal/mole
 H     -6.6142634416    -4.4642754011     1.1737724864
 F     -5.9018765439    -4.9451964339     1.4933172692
 H     -3.8592800833    -4.7147677713     1.9617915830
 F     -3.0456867224    -4.3059940311     2.0706900329
 H     -2.9334088621    -2.9367998634     3.3840286267
 F     -3.1635054708    -2.3864371964     4.0804806965
          6
Energy: -8.994813802769016 Kcal/mole
 H     -0.5591959805    -0.7911430085     4.2730209127
 F     -0.7910786344    -1.2192610011     5.0500887470
 H     -0.3222065791    -3.2040461256     6.6305023566
 F     -0.7437767826    -3.7772267542     7.2089758050
 H      0.4892903134    -4.9635012215     6.9891717078
 F      1.2836586518    -5.1994704951     6.5965058894
          6
Energy: -13.149686105661686 Kcal/mole
 H     -2.6189960754     0.9931071237     7.0644798269
 F     -2.9089254441     1.7979538851     7.3947095226
 H     -5.0495940264     1.6273136083     6.3602309588
 F     -5.4505915411     0.8383270773     6.1202512782
 H     -3.6248362848    -0.5114206300     5.6602518444
 F     -2.8413792563    -0.6161529775     6.1251337862
          6
Energy: -10.485151376630398 Kcal/mole
 H     -2.5984901313    -3.6052448071     1.7675496539
 F     -2.6125872971    -4.1228515118     2.5243677094
 H     -4.6326722285    -4.5744279652     2.4262755280
 F     -5.1789375540    -4.6484220874     1.6934671873
 H     -6.6289029299    -5.6578659088     1.1580192800
 F     -7.4193427104    -6.0074570211     0.8516208343
          6
Energy: -14.62269462673757 Kcal/mole
 H     -5.5314656760    -3.4434389804    -7.0171975383
 F     -4.7627741296    -3.5697962708    -6.5334247179
 H     -5.2862864455    -3.0622745316    -4.9355715490
 F     -5.9235918832    -2.6909116951    -4.3907592669
 H     -7.4859389727    -2.4810796992    -5.6922518513
 F     -7.3042950882    -2.6101772560    -6.5817620086
          6
Energy: -14.662195321606077 Kcal/mole
 H      4.3870312035    -4.8713713567     2.6567251971
 F      4.1172415134    -5.7362662544     2.7983561930
 H      4.2111693325    -6.2497289457     4.3458170875
 F      4.5026353169    -6.2054537865     5.2141351688
 H      5.7335239726    -4.9432443999     4.8678500432
 F      6.2102979419    -4.3611773901     4.3436615481
          6
Energy: -13.352904092228073 Kcal/mole
 H      5.5767277370     3.3406185181     5.5853971995
 F      5.6024535501     4.2371297885     5.7764331243
 H      6.2847022991     5.7037753825     5.2436419689
 F      6.7189540118     6.2867618202     4.6846775125
 H      6.2946144498     5.4157896315     3.2870520658
 F      5.8666249782     4.7292760396     2.8552962315
          6
Energy: -15.577446501359276 Kcal/mole
 H     -5.4719646599     0.3549906761     4.4278578664
 F     -4.6636967616     0.6351124994     4.0975189969
 H     -3.5233687087    -0.8492490581     4.2826661530
 F     -3.4823375651    -1.7555257243     4.4163375769
 H     -5.1464356631    -1.8340821711     5.2468485787
 F     -6.0208643867    -1.5668516599     5.3164995754
          6
Energy: -13.593966686840133 Kcal/mole
 H     -2.6881169590    -3.4775406032     5.3523208838
 F     -3.3784449053    -3.0686851169     5.7963631316
 H     -4.2823053066    -4.3562451086     6.2010639016
 F     -4.7506793352    -5.1397147713     6.2887568709
 H     -3.0724397316    -5.6529161387     4.8731425502
 F     -2.1809718765    -5.4393144780     4.8497247387
          6
Energy: -15.225445391089465 Kcal/mole
 H     -6.3509748683     4.8524540941     5.8770710363
 F     -6.5723126048     5.6054296430     5.4028069441
 H     -6.4478633018     4.9712713215     3.4985404824
 F     -6.4762091738     4.1676247488     3.0578164217
 H     -6.0096289013     3.3001129396     4.2904838230
 F     -5.8790899105     2.9026298239     5.1064836665
          6
Energy: -15.845597912068598 Kcal/mole
 H     -3.4988174827    -5.5042158883     5.9500048658
 F     -4.2929821224    -5.9066419248     6.1696518784
 H     -5.2409830515    -4.5643763013     5.0542792234
 F     -5.1093322738    -3.8793458159     4.4590563184
 H     -3.3206971303    -3.4757256353     4.8330527954
 F     -2.6583343871    -3.9228226351     5.2827959102
          6
Energy: -16.13486332609267 Kcal/mole
 H     -1.9868019336     1.5850268086    -0.2891558352
 F     -1.7302750961     0.7065888394    -0.3477196104
 H     -2.5585174575     0.3328513079    -1.7156138407
 F     -2.9642284935     0.5457233087    -2.5099519718
 H     -3.2128776421     2.1083317528    -2.0982642776
 F     -3.1147217709     2.7544446094    -1.4549971468
          6
Energy: -12.157889759126988 Kcal/mole
 H     -2.7055102154     2.2962482055    -4.8811396058
 F     -2.8871074265     1.5981184748    -5.4472900557
 H     -2.4501556884     0.0729234638    -4.9071218605
 F     -2.0062542743    -0.7012666813    -4.6962423835
 H     -2.2186610712     1.9570968796    -2.4899027953
 F     -2.3315226675     2.5672101583    -3.1651161299
          6
Energy: -14.888969010654165 Kcal/mole
 H     -3.6498024348     6.8213772792    -2.4066225519
 F     -3.7051593823     7.0699193884    -3.2875603637
 H     -1.5971278646     6.7686912986    -3.4608028893
 F     -0.8685325859     6.5138788139    -2.9657185353
 H     -1.8520248042     5.9181585478    -1.1423743469
 F     -2.7566649875     5.9945126119    -1.0132031595
          6
Energy: -14.080853491968412 Kcal/mole
 H     -1.9976674677    -0.6693905207    -4.4431935068
 F     -2.5557114394     0.0316181838    -4.2480968082
 H     -1.7894937653     1.3852976731    -3.4619150409
 F     -1.0753231621     1.9156329807    -3.2392183614
 H      0.3567870332     1.1042198105    -3.7365841426
 F      1.0152461508     0.4937135900    -3.9226022735
          6
Energy: -16.432924889294497 Kcal/mole
 H      0.9623853397    -0.9952685387    -4.7656333935
 F      0.7557709077    -1.8848060702    -4.8488346950
 H      1.2384576288    -2.0660131070    -3.2025154937
 F      1.5073914656    -1.8628283183    -2.3497086380
 H      1.3072986168    -0.1195787019    -2.8682896495
 F      1.2946218454     0.3184305946    -3.6738181441
          6
Energy: -15.714810289214995 Kcal/mole
 H      4.4839007093     1.9857944533     1.9971861594
 F      4.0650692883     1.1703582162     2.0202726074
 H      2.8501299093     1.8438178986     0.4624885494
 F      3.0218820584     2.5175587952    -0.1353938834
 H      4.2732776152     3.3880935150     0.6132300789
 F      5.0062725738     3.5518250726     1.1393473356
          6
Energy: -13.626062234411592 Kcal/mole
 H      3.8863193371    -2.9989157801     0.0808601889
 F      4.5301234499    -2.3523922962    -0.0108603054
 H      3.9396565637    -0.4979890817    -0.0396470724
 F      3.1706495917    -0.1035268368    -0.3461055758
 H      1.9752452399    -1.7790526405     0.0996391286
 F      1.8426642026    -2.6135990344     0.4557901992
          6
Energy: -16.3035787552935 Kcal/mole
 H      0.3875552011    -1.4702717141     2.6704382602
 F      0.5464513013    -0.9556349927     1.9282859347
 H     -1.2449941436    -0.8100072688     1.6795170125
 F     -2.0373835727    -1.1985152437     1.9286546172
 H     -1.4125536058    -2.2006141435     3.2790319380
 F     -0.7522729034    -2.4989217851     3.8411092857
          6
Energy: -16.03117715938157 Kcal/mole
 H      3.4358996301    -3.2545680598     3.9852584099
 F      3.1419819204    -3.0240718781     4.8227384933
 H      4.7879294950    -2.4105233430     5.6531542030
 F      5.6722988602    -2.6443581216     5.5891141985
 H      5.4218824766    -3.2505487130     3.9990919659
 F      5.0598548486    -3.4280227349     3.1754852829
          6
Energy: -14.635124632940887 Kcal/mole
 H      3.3186847119    -1.0863816039     6.9011442936
 F      3.8909039547    -0.3759598398     6.8075758411
 H      2.8251654615     0.8754550763     6.3148818703
 F      2.2240379156     1.4114646462     5.8764432605
 H      1.0362669274    -0.0251265445     6.5332263208
 F      1.2514480673    -0.8989764047     6.7092163741
          6
Energy: -15.509252484197162 Kcal/mole
 H      1.2838938896    -4.3222187353    -0.5673892393
 F      1.6244677875    -4.7339140137     0.1778660309
 H      0.1768734398    -5.5355866241     1.2001949681
 F     -0.6706380780    -5.8679145365     1.0898709648
 H     -0.7389236654    -5.1363149293    -0.6203978901
 F     -0.5726553750    -4.5746762203    -1.3259514431
          6
Energy: -15.23575899379631 Kcal/mole
 H      3.3696968740    -5.5338453242     2.9225384066
 F      2.9064496582    -5.7897861176     3.6713944190
 H      5.1320134826    -6.0727484120     4.4221153413
 F      5.7857456995    -5.5788569056     4.0102969730
 H      5.2303600583    -5.2720722368     2.5021371870
 F      4.5580037706    -5.2344548539     1.8797137339
          6
Energy: -16.146942754171675 Kcal/mole
 H      4.4004114326    -5.6727525335     3.5175184875
 F      4.0653393838    -6.3715357564     4.0077406101
 H      2.5925592955    -5.4512463574     4.1896403536
 F      2.0757488979    -4.6990571082     4.1001565769
 H      3.4928146661    -3.7416843445     3.4314919832
 F      4.3830353615    -3.9339883293     3.3246496183
          6
Energy: -16.574384463454123 Kcal/mole
 H     -2.4468045128    -1.9476081779    -0.1264203510
 F     -1.8369380581    -1.7844652520     0.5386633229
 H     -0.4172119133    -2.3677684546    -0.4195053009
 F     -0.1942507179    -2.5875391557    -1.2814090915
 H     -1.7551275833    -2.5185666979    -2.0663715849
 F     -2.6605467019    -2.5621529780    -1.9277878350
          6
Energy: -17.00311444830436 Kcal/mole
 H     -6.9833758132     1.6610251768    -0.3831188210
 F     -7.1430160729     2.4674145429    -0.7894932515
 H     -7.2396814891     1.5894944283    -2.3642780109
 F     -7.0129985604     0.8782622819    -2.8968685513
 H     -6.7893454582    -0.0875820172    -1.4460818118
 F     -6.7471447213    -0.0539857057    -0.5306696720
          6
Energy: -16.41536801828022 Kcal/mole
 H     -3.8763033992    -3.0006666127    -1.0798636054
 F     -3.7403694085    -2.1481245066    -1.3890284603
 H     -5.2671402432    -1.4801860749    -0.5379319850
 F     -6.0194224752    -1.7357660395    -0.0800681131
 H     -5.5811922838    -3.4138501389    -0.1651661495
 F     -4.9922982060    -4.0457059647    -0.4731450135
          6
Energy: -15.482356241969228 Kcal/mole
 H     -4.0321431864     0.9516304982    -4.1516058346
 F     -4.6881079879     1.5738868491    -3.9986476281
 H     -4.0487225004     2.3914180918    -2.3722469995
 F     -3.5342530439     2.2819651578    -1.6210943962
 H     -2.9212270765     0.6937716250    -2.3865834805
 F     -2.9187036413     0.0314474970    -3.0207832768
          6
Energy: -16.558104443622938 Kcal/mole
 H     -5.9097102643    -0.8581115359    -5.3890331115
 F     -6.4242828741    -0.7650314095    -6.1423193249
 H     -5.4680178952     0.5614980594    -6.8692890918
 F     -4.7349809811     1.1122532077    -6.8839399998
 H     -4.4336519717     0.6448355890    -5.2988006688
 F     -4.4738544824     0.2008869159    -4.4974378710
          6
Energy: -16.406805464120566 Kcal/mole
 H     -4.4040823663     3.2783276878    -5.4100113320
 F     -4.6824731365     3.1321812296    -6.2714222629
 H     -5.3077686391     4.9642755711    -6.2720370144
 F     -5.4432387125     5.5987178668    -5.6239476435
 H     -4.6178955988     4.7433472906    -4.0959558501
 F     -4.0909687896     4.0319763825    -3.8568145342
          6
Energy: -16.88157968208708 Kcal/mole
 H     -3.9959817057    -0.4184900866    -3.2354073549
 F     -4.8877295389    -0.3038228996    -3.4157576761
 H     -4.4315974672     1.2828242139    -4.1528443096
 F     -3.8013302152     1.9321079008    -4.3014474220
 H     -2.4613603299     0.8214622353    -3.9167589022
 F     -2.3189703200    -0.0264906236    -3.5980269863
          6
Energy: -17.177131194106607 Kcal/mole
 H     -4.3291837202     6.7991212657    -2.1180423617
 F     -4.6781480892     6.4028542362    -1.3683188723
 H     -3.1753731353     5.7798031099    -0.8731855057
 F     -2.2627016061     5.7081572248    -0.9259732588
 H     -2.2187213052     6.4803144671    -2.5254438433
 F     -2.7405260662     6.8745195257    -3.1682588736
          6
Energy: -16.092571790298194 Kcal/mole
 H     -5.2418760144     7.3156802805    -1.0066670513
 F     -4.7150673489     6.7825300273    -1.5349779802
 H     -5.9044706932     5.4074144871    -1.7075216088
 F     -6.5843905282     4.9071464784    -1.3492899277
 H     -7.1716955144     6.1400437816    -0.4786941900
 F     -7.1492592941     6.9939041621    -0.1450655541
          6
Energy: -16.987329411936855 Kcal/mole
 H     -4.8346676618     4.9168174741    -2.4285441345
 F     -4.7895314317     5.6527432756    -2.9737642144
 H     -3.5396540043     5.0367946591    -4.0846002827
 F     -3.0988211243     4.2774045800    -4.3489524713
 H     -3.5092430803     3.3691763403    -2.7559025706
 F     -4.0234784162     3.3797532936    -1.9967325321
          6
Energy: -16.845489896301444 Kcal/mole
 H     -2.6219857849     3.4319127104    -3.3299699621
 F     -1.7737206639     3.2724149947    -3.0202995515
 H     -2.0330697239     4.4462558597    -1.5942022014
 F     -2.7187501210     4.9999686857    -1.3409562749
 H     -3.9649979248     4.4301218860    -2.3978807075
 F     -4.2654451306     3.9046667347    -3.0867329126
          6
Energy: -17.190245467735394 Kcal/mole
 H     -1.3855098777     4.1902823020    -0.1005947166
 F     -0.4891863115     4.0210242751    -0.0065479995
 H     -0.5283211725     2.9443819002    -1.3822042933
 F     -1.0946247152     2.5376825589    -1.9778425587
 H     -2.4283860076     3.4068231814    -1.4947717623
 F     -2.8698802907     4.0174948323    -0.9722280485
          6
Energy: -17.038376832356448 Kcal/mole
 H     -2.1922595824     6.1451240228    -1.2035571187
 F     -2.4763729492     6.9106611525    -0.7862784373
 H     -0.9665132275     7.3988549255    -0.0959238407
 F     -0.0862714357     7.2610943356     0.1210678821
 H     -0.0060593694     5.6756432321    -0.9450533758
 F     -0.5589303135     5.1305559741    -1.4330109563
          6
Energy: -17.09082414450853 Kcal/mole
 H     -1.1882065092     4.4784282956    -1.5233228737
 F     -0.3953456393     4.4881854582    -1.9839370711
 H      0.1039796636     6.0201386990    -1.2590526613
 F      0.0459401124     6.6640408437    -0.6087370158
 H     -1.6040631428     6.0885106709    -0.0769131025
 F     -2.2146259544     5.4450668012    -0.3094685576
          6
Energy: -17.160974705038882 Kcal/mole
 H      3.2238957240     6.6586746321     0.7931609613
 F      3.6819014307     6.1315682607     1.3875334421
 H      3.2606019251     4.6935170518     0.4926140254
 F      2.7399966320     4.3721895021    -0.1904728905
 H      2.1262535627     6.0321198479    -0.7796191784
 F      2.2966851751     6.9162078720    -0.6057501728
          6
Energy: -17.28561403051907 Kcal/mole
 H     -0.4896671766     3.9657914172    -1.4888301166
 F     -0.6867434119     3.2126997776    -1.9734979822
 H      1.0062800795     2.6215025175    -1.8468643660
 F      1.8437521368     2.8355301362    -1.5407243135
 H      1.3725505017     4.2317951259    -0.6589539692
 F      0.6838507638     4.8045160574    -0.4625553808
          6
Energy: -17.2078422065336 Kcal/mole
 H      2.6088762007     2.2516100075    -0.9744742847
 F      2.7614183202     2.0164753727    -0.1013582527
 H      1.5009286172     0.7863980783    -0.3421392405
 F      0.8528974869     0.3787967745    -0.8469221952
 H      1.2283722845     1.4213886276    -2.2891326329
 F      1.7878438291     2.0978426381    -2.5542563067
          6
Energy: -17.42577620861954 Kcal/mole
 H      0.6684222867     1.2725437396    -0.9159864900
 F      0.1503595989     0.5329188283    -0.7564401269
 H     -0.4376959836     0.4802101832    -2.4394726005
 F     -0.3820456669     0.8273592440    -3.2863961932
 H      0.9293295463     2.0279548172    -2.7931166562
 F      1.3783113757     2.3861595846    -2.0782784497
          6
Energy: -17.50250697142087 Kcal/mole
 H      0.8893655586     0.2923549952    -1.9417518366
 F      0.1604356469    -0.2304910660    -2.1319679769
 H      0.4627006003    -0.1342711350    -3.8446633574
 F      0.9976241233     0.1888933870    -4.5157151559
 H      2.0591728164     1.1043623170    -3.3990358319
 F      2.2422987094     1.3071525944    -2.5236901798
          6
Energy: -17.405125410276753 Kcal/mole
 H      1.0307613819    -0.1021448227    -2.1476656096
 F      0.3451865648    -0.6284714057    -1.8413055304
 H      0.6001515600    -1.9172511050    -3.1684983110
 F      1.1165066806    -2.0985494710    -3.9042953563
 H      2.0971509430    -0.6234149132    -3.7469570233
 F      2.3199939670     0.1251394407    -3.2664402537
          6
Energy: -17.47073628819186 Kcal/mole
 H      1.4885299515    -0.6877997356    -2.3843528646
 F      0.6937985890    -1.1390227932    -2.3089286402
 H      0.6906125444    -1.5936017504    -3.9935655436
 F      1.0410458189    -1.5779629715    -4.8408204927
 H      2.4725598543    -0.6414345457    -4.2221122523
 F      2.8149665540    -0.2340629198    -3.4753224489
          6
Energy: -17.525013427510487 Kcal/mole
 H      2.4671889993    -1.7437664867    -2.7879401111
 F      1.7112182140    -2.2447410129    -2.6522135628
 H      0.9459537059    -1.5288536873    -4.1332631517
 F      1.0574598926    -0.9551834328    -4.8399156897
 H      2.6997868229    -0.5143869399    -4.3582209601
 F      3.3906319003    -0.6129526390    -3.7633202273
          6
Energy: -17.579998784508803 Kcal/mole
 H      2.4641773712    -1.7482292082    -2.7746003657
 F      1.6783773109    -2.2054227327    -2.6546781140
 H      0.9632918574    -1.5219225708    -4.1146978240
 F      1.0625110283    -0.9683192739    -4.8389684542
 H      2.7065248955    -0.5166349403    -4.3663155461
 F      3.3902744611    -0.6128333878    -3.7628908282
