          6
Energy: -17.58022099440751 Kcal/mole
 H     -7.2597299544    -7.0485973779    -3.0451881605
 F     -7.1613722526    -6.4929152554    -3.7679828349
 H     -6.0061744806    -5.4654855802    -2.9205584380
 F     -5.5372649639    -5.2998717751    -2.1501138049
 H     -6.2345135657    -6.7030652065    -1.3324711601
 F     -6.8008029117    -7.4226949588    -1.3808281255
