          6
Energy: 0.062448971066977776 Kcal/mole
 H     -0.3562384998    -4.0987106603     3.0723667325
 F      0.5224292491    -3.8363521517     3.0723667325
 H     -2.1608577908    -1.9352671548    -3.1590992101
 F     -1.2438577908    -1.9352671548    -3.1590992101
 H      5.6113497132     3.8393034612    -1.8049455448
 F      5.0868552010     4.5914965925    -1.8049455448
