          6
Energy: -17.579754930865704 Kcal/mole
 H     -7.2264738986    -6.6903175135    -2.6781683519
 F     -7.4807731998    -5.9560331201    -3.1650433820
 H     -6.1400396927    -4.9886300623    -2.5546343153
 F     -5.3978609224    -4.9457257731    -2.0177740961
 H     -5.5928387929    -6.6240182531    -1.4849793959
 F     -6.0820500430    -7.3978373800    -1.5375656271
