          6
Energy: -17.33554014846419 Kcal/mole
 H      5.9259587922    -0.0167670591     6.1813725917
 F      5.5926382620     0.4843022080     5.4894795265
 H      6.6082403667    -0.2981115076     4.2660694943
 F      7.2931014366    -0.8763701214     4.0724944686
 H      7.4224890814    -1.3381491583     5.7234668120
 F      7.1874141305    -1.1891343887     6.5972078296
          6
Energy: -17.26461454639815 Kcal/mole
 H      7.1412444140     1.3502026225     6.8281455182
 F      7.1253674091     2.1838795178     6.4465439524
 H      6.7598807065     1.5297000328     4.8844560673
 F      6.7194769428     0.8488371503     4.2715268127
 H      7.0485670839    -0.3781262566     5.6339876658
 F      7.1966851156    -0.4153443762     6.5381805989
          6
Energy: -17.322599436734095 Kcal/mole
 H      6.9215939826     1.9799991748     4.3984888204
 F      6.9689923016     1.1708850175     3.9695637922
 H      5.2025313221     1.1050565415     3.5977971026
 F      4.4256205638     1.5797139406     3.7073371738
 H      5.1881599675     3.0785436225     4.4609980760
 F      5.9578968274     3.4234738949     4.8207442001
          6
Energy: -16.866568397745823 Kcal/mole
 H      6.9004835905     0.2730348815     0.8815714650
 F      6.5454216281     0.0854913817     1.7059787906
 H      6.3494221008    -1.6214428013     1.4262189914
 F      6.3363099704    -2.3130675560     0.8242453451
 H      7.0759481185    -1.1884813082    -0.6890181965
 F      7.4170645577    -0.3400977870    -0.7581121605
          6
Energy: -17.281292928750815 Kcal/mole
 H      7.0712066371    -1.6234084937    -1.5493693520
 F      7.2342254191    -2.1847475076    -0.8428197159
 H      7.4444933869    -0.8014641023     0.3408847583
 F      7.3131020972     0.1060274936     0.3500680316
 H      6.9010108769     0.3113415191    -1.3464402978
 F      6.7370107060    -0.0492732940    -2.1734529341
          6
Energy: -17.38210570788999 Kcal/mole
 H      2.0105048712    -2.8997332877     0.6692186958
 F      1.7347987150    -2.9909736449     1.5390177028
 H      2.9369528702    -1.7767266505     2.0738017610
 F      3.5275622199    -1.1180742885     1.8324583086
 H      3.2975743574    -1.4570028229     0.1484775408
 F      2.9233053938    -1.9965424199    -0.4916074272
          6
Energy: -17.114116446555272 Kcal/mole
 H      3.5765860899    -2.7507303227     0.1785578195
 F      3.4399229818    -3.2545649433     0.9324562676
 H      2.5569240199    -1.9774600934     1.8294783162
 F      2.2762933459    -1.1050128762     1.8606436497
 H      2.8697240114    -0.8641859198     0.2021681967
 F      3.2727947575    -1.0885855619    -0.5903390741
          6
Energy: -16.975069405368572 Kcal/mole
 H      2.1025298248    -2.2072909646     2.2376169540
 F      2.4542608342    -3.0190571456     1.9963495411
 H      2.1639454991    -2.8981177280     0.3826671430
 F      1.7777102290    -2.4605542044    -0.3246160245
 H      1.3016055800    -1.0047678977     0.6623808966
 F      1.3648284762    -0.6581092207     1.5089738489
          6
Energy: -17.180074970124792 Kcal/mole
 H      2.9739898671    -2.2352946483     1.5060874799
 F      3.6409727336    -2.8581074038     1.4159368979
 H      4.8314873993    -1.6427010076     1.6896189777
 F      4.9461538072    -0.7611210049     1.9144685135
 H      3.2489310213    -0.4055017541     2.1077320765
 F      2.3908576391    -0.7139715569     2.0105443635
          6
Energy: -17.314390350086796 Kcal/mole
 H      5.9842870851    -2.2031216328    -1.2203001278
 F      6.5972266694    -1.5765308661    -0.9508969408
 H      5.5425617212    -0.1342328293    -1.1311457078
 F      4.7527299480     0.2252020605    -1.4275598269
 H      4.0767641875    -1.4202608411    -1.7657834562
 F      4.2267608293    -2.3241081017    -1.7277027923
          6
Energy: -17.27190437067202 Kcal/mole
 H      6.8988452464    -3.7630417320     0.1548552708
 F      6.4942326844    -4.2676302912    -0.4951970814
 H      4.8472209543    -3.9386922289    -0.0761206635
 F      4.2057269141    -3.5032716674     0.4135560981
 H      5.5393807588    -2.6455182173     1.2873712453
 F      6.4326071214    -2.5288489923     1.4589053735
          6
Energy: -16.74543643185632 Kcal/mole
 H      4.6071432391    -2.6021266192     1.3135312717
 F      4.7868010288    -1.7786696306     1.6748215516
 H      3.4390069105    -2.1162651063     2.6642997795
 F      2.6651297551    -2.5927738899     2.7865394107
 H      3.1724146266    -3.9418370383     1.5853421910
 F      3.8620396424    -4.0726452365     0.9952612195
          6
Energy: -17.244207117200574 Kcal/mole
 H      6.6735833009    -2.3455403937     0.6529021404
 F      6.5554541704    -1.6474567091     1.2356659671
 H      4.8573922836    -1.3876872210     0.9514688934
 F      4.1011454904    -1.5636542333     0.4636006752
 H      4.9087256960    -2.7209204853    -0.4448952040
 F      5.6209791039    -3.2733947047    -0.6132885524
          6
Energy: -17.22543327672514 Kcal/mole
 H      3.9889661920    -2.9524714031     0.9968351763
 F      3.0984652832    -2.9363550950     0.7785752484
 H      3.3967281398    -1.7892244508    -0.6116897294
 F      4.0620000983    -1.3253093454    -1.0395740552
 H      5.3340685010    -2.1376083025    -0.1834103775
 F      5.6489215163    -2.6819805668     0.4839841210
          6
Energy: -17.52803392608689 Kcal/mole
 H      4.6274037076    -1.2189781408    -0.6169031445
 F      5.0377869939    -0.9920399467     0.1711156461
 H      6.3765890990    -2.0792427329    -0.0693539623
 F      6.8039117408    -2.7090987608    -0.5807889475
 H      5.5029871231    -2.6681966109    -1.7798540426
 F      4.6993116710    -2.3219550956    -2.0539189635
          6
Energy: -17.394183018583817 Kcal/mole
 H      4.7919152466    -5.6711783426    -0.1228327512
 F      4.7944218380    -6.3386554253     0.5059415017
 H      6.3861573039    -5.8374289423     1.1500631930
 F      7.0125488201    -5.1677105929     1.1500932672
 H      6.2842581743    -4.2457444640    -0.1848737974
 F      5.6034447766    -4.2460069668    -0.7991880888
          6
Energy: -17.482593622846593 Kcal/mole
 H      3.3767362814    -6.4545671126     1.2333956562
 F      3.3964466731    -6.8499021267     2.0605659694
 H      4.9481280229    -6.2205411485     2.4636008334
 F      5.6778424789    -5.6962721799     2.2804400810
 H      4.9689577787    -5.1915695337     0.7154965879
 F      4.2550822096    -5.3095429602     0.1521557120
          6
Energy: -17.45494565433569 Kcal/mole
 H      1.6963598659    -6.1341837517     5.9247600173
 F      1.8493344834    -5.7884447373     6.7601954130
 H      2.0972950179    -4.1045977645     6.1257700768
 F      2.0721815921    -3.5588939967     5.3892473592
 H      1.6625931779    -4.8556094433     4.3189948754
 F      1.4711358133    -5.7464816493     4.2161367691
          6
Energy: -17.295315226496086 Kcal/mole
 H      3.7772490018    -2.4662014145     3.5002040939
 F      3.1585883646    -1.7916194565     3.5557666536
 H      2.2114331431    -2.4651616860     2.3381784797
 F      2.0513686048    -3.0819223780     1.6787282600
 H      3.5090280975    -4.0863985373     2.2644815985
 F      4.1859072241    -4.0577702713     2.8824654739
          6
Energy: -17.30426106775502 Kcal/mole
 H      4.7478120670     1.4223980882     1.0430653790
 F      4.2440008991     0.6844201871     1.2491040271
 H      4.5214865659    -0.0843107178    -0.2943281566
 F      4.9385524083    -0.1502149095    -1.1083316704
 H      5.8262457251     1.4942910649    -0.7753567292
 F      5.8266419636     2.1655986424    -0.1506688236
          6
Energy: -17.33508414191914 Kcal/mole
 H      4.9688462196     0.0302529394     1.2040566388
 F      4.6128452463    -0.4919189122     1.8685029229
 H      4.9430466497    -2.0533897290     1.1323896851
 F      5.1759994843    -2.5163417721     0.3758862928
 H      5.7178565243    -1.0607999519    -0.4167511624
 F      5.8070180041    -0.1481639460    -0.4108561443
          6
Energy: -17.276119431580753 Kcal/mole
 H      7.0862839177     1.2893753781     1.2846553652
 F      6.7050953794     0.6635997408     1.8360074760
 H      6.3087247388    -0.4704228336     0.5598821789
 F      6.2422965324    -0.7123365579    -0.3221348523
 H      7.1321260479     0.7281477204    -0.8095669507
 F      7.4457688886     1.5494582651    -0.5488637523
          6
Energy: -17.003931018311164 Kcal/mole
 H      4.8773336011    -0.5912089104     0.2898527112
 F      5.3102171813    -1.3943708693     0.3816768563
 H      6.7855246829    -0.6551128671     0.2696384627
 F      7.3078342957     0.0985497736     0.2610191539
 H      5.7729331561     1.2665062078     0.0577513793
 F      4.8703097999     1.1243455660    -0.0193876424
          6
Energy: -17.358164532722185 Kcal/mole
 H      4.0705079892    -1.3411486392    -0.6110947261
 F      3.6479560506    -1.9094846843    -0.0285717660
 H      4.2312302370    -1.1157250859     1.3483920983
 F      4.6837986752    -0.4121827983     1.7240236444
 H      5.2293777553     0.2083327297     0.0771083001
 F      5.1358570000     0.0978269549    -0.8283923029
          6
Energy: -17.328326993476082 Kcal/mole
 H      4.3465069059    -1.9056477421     0.7549729776
 F      3.8663732827    -1.3763586545     1.3296152712
 H      5.2565216646    -0.5784961743     1.9856625358
 F      6.1662015589    -0.4783283093     2.0434370010
 H      6.4866395653    -1.7937801196     0.8516492557
 F      6.0340369034    -2.3680423555     0.2982391772
          6
Energy: -17.374890207578858 Kcal/mole
 H      5.0090349290    -1.6328399889     4.3255763485
 F      5.4775288014    -1.4823580827     5.0993706930
 H      6.4860227665    -0.1853352137     4.3747006731
 F      6.6973463915     0.3128093356     3.6343741684
 H      5.3859945364    -0.4159230393     2.6664300187
 F      4.7738406718    -1.0930687723     2.5790784172
          6
Energy: -17.35891327034284 Kcal/mole
 H      4.8275517056    -0.6757724502     4.0720622975
 F      4.6214039238    -1.4507932435     4.5167361804
 H      3.0471835044    -1.6167856235     3.8151889069
 F      2.3750565933    -1.2689362190     3.2973711715
 H      3.3440659709     0.1321263037     2.7472975937
 F      4.1716656465     0.5238717181     2.7973306558
          6
Energy: -17.53970387826689 Kcal/mole
 H      5.1176297109     0.8115611453     1.8486084020
 F      5.1469345782    -0.0648221252     1.5803126921
 H      3.3841304061    -0.2395897098     1.7150552046
 F      2.5887762614     0.1495239989     1.9535741893
 H      3.3656630268     1.7133963409     2.3227510993
 F      4.1381990052     2.2042023885     2.3792009500
          6
Energy: -17.428369303443162 Kcal/mole
 H      3.0662465428    -1.5856804173     0.7140425877
 F      3.0212229952    -2.4157264991     1.1011929231
 H      3.0077582309    -1.8175859295     2.7620281071
 F      2.9626400964    -1.0746811480     3.2977013653
 H      3.0934506241     0.0300065839     1.9391778305
 F      3.2238304590     0.1803624375     1.0440335874
          6
Energy: -17.43720393418687 Kcal/mole
 H      1.8871898742    -1.8786540340     0.2816886993
 F      1.7275663698    -2.2355523306     1.1111662112
 H      2.4894643684    -0.8541452919     1.9678002876
 F      2.8876963446    -0.0309648884     1.8994313148
 H      2.6912280176    -0.0394268775     0.1435733312
 F      2.4670213458    -0.4529078409    -0.6436076271
          6
Energy: -17.49742318827697 Kcal/mole
 H      0.2687640158    -0.4913287163     1.5613673054
 F      0.2228988249    -0.5267259071     2.4765352807
 H      2.0175865405    -0.4393848907     2.5814610989
 F      2.8168636604    -0.4010055950     2.1336083158
 H      2.0485579013    -0.3056243177     0.5678443368
 F      1.2578746465    -0.3068753535     0.1034012020
          6
Energy: -17.412091482788924 Kcal/mole
 H      0.8029315250    -0.9952668636     2.2465708718
 F      0.0698639947    -0.6143458713     2.6445660898
 H      1.0635826614     0.5682361530     3.5465819413
 F      1.9138275515     0.8940566938     3.6552723371
 H      2.6884436314    -0.3270684711     2.6523996064
 F      2.5711447132    -0.9927207705     2.0326924336
          6
Energy: -17.475575057896663 Kcal/mole
 H      1.8677391023     0.4488441723     1.2584770345
 F      2.0615160492    -0.4342570203     1.4116820560
 H      3.7807104286    -0.2529277844     1.0727161523
 F      4.4777210717     0.3282997503     0.9414160520
 H      3.4190584972     1.7338921499     0.9081740129
 F      2.5667888664     2.0704227516     0.9438479604
          6
Energy: -17.379248279512865 Kcal/mole
 H      1.9469910075     0.8805206130    -1.5751961209
 F      2.0576922789     0.0040903845    -1.3292199370
 H      3.0089306498     0.5404669572     0.1685873197
 F      3.3526987802     1.2794822005     0.5887883938
 H      2.7826897954     2.3766206808    -0.6453422535
 F      2.2960547589     2.5229047484    -1.4086746272
          6
Energy: -17.540470785506102 Kcal/mole
 H     -1.2253823079     1.7462443368     0.7321643851
 F     -1.3057601147     1.2251003517     1.4823892547
 H      0.4371089149     1.1743998295     1.7505086552
 F      1.2707686675     1.4062847481     1.4469797415
 H      0.5879645883     2.3243436295     0.0378271177
 F     -0.1759733238     2.5971800850    -0.3897803365
          6
Energy: -17.365845501314766 Kcal/mole
 H      1.6407850977     0.5738769335     2.1073184330
 F      1.4653966067     1.2599462550     1.5247064151
 H      2.7194759863     0.9320042127     0.4078679732
 F      3.3896117270     0.3864737648     0.1009418919
 H      3.1592221502    -0.6819230732     1.4677242869
 F      2.7035444466    -0.8895291287     2.2359342557
          6
Energy: -17.338248038931056 Kcal/mole
 H      2.9037018897    -0.7116010481     2.5399962439
 F      2.7256637191     0.0896670584     2.9488493119
 H      4.3800946846     0.7508782425     2.3722945818
 F      5.1371713923     0.5502826105     1.8953404424
 H      4.6778370016    -1.0895651033     1.5005137586
 F      4.0381515655    -1.7422583657     1.5758997524
          6
Energy: -17.386037063805418 Kcal/mole
 H      1.7242937567    -1.1081175605     0.7391091246
 F      1.6058911110    -0.2917802880     1.1396877947
 H      2.9347968256     0.4145075688     0.1103846813
 F      3.5773663716     0.2275358860    -0.5165403289
 H      3.1778225028    -1.5823392157    -0.6027799687
 F      2.5781230685    -2.1949661622    -0.2772990739
          6
Energy: -17.531597994869344 Kcal/mole
 H      0.6231495345    -1.4199356870     0.0508015045
 F      0.2426820270    -0.8922010236    -0.5954411748
 H      1.7455190608    -0.6698053279    -1.4457508392
 F      2.6448574781    -0.8466517473    -1.4741190433
 H      2.5985894471    -1.7755244794     0.0216683021
 F      2.0949453846    -2.1019932456     0.7149574215
          6
Energy: -17.50189107371989 Kcal/mole
 H      2.1113247883    -0.9728097839     0.8138819606
 F      2.5172852550    -0.6600348968     0.0534498667
 H      1.4822311311    -1.6657992696    -0.9504012934
 F      0.8136443252    -2.2933698833    -0.9444173356
 H      0.6219044803    -2.2527590903     0.8079477214
 F      0.9147483577    -1.9236840112     1.6122120162
          6
Energy: -17.457372491862543 Kcal/mole
 H     -0.1920310119     1.4899986089     1.7952442938
 F      0.0425063937     1.7910472736     0.9614272235
 H     -0.5257284406     0.3615607326     0.2480030628
 F     -0.9058861045    -0.4721824878     0.2832364700
 H     -1.0581991676    -0.3053147284     2.0119641058
 F     -0.9017999849     0.2220176494     2.7456867094
          6
Energy: -17.480350242057 Kcal/mole
 H      0.4450347553     0.4465243443     3.3606241108
 F      1.1569515565     0.1569972599     2.8603866316
 H      0.1312913602     0.1222735629     1.3520427582
 F     -0.6970198302     0.3030109813     1.0025809471
 H     -1.3579123674     0.7713666645     2.5080919759
 F     -1.2624224734     0.8806904828     3.4135305342
          6
Energy: -17.437790753850095 Kcal/mole
 H      0.1725445533     1.2251142172     3.1901382655
 F      1.0802594989     1.2771696679     3.0708369346
 H      0.8636313680     0.9012163782     1.3725325395
 F      0.2713125564     0.7513088425     0.6887378655
 H     -1.0764062074     0.8722779663     1.7600336419
 F     -1.3966459674     0.9969572471     2.6102045500
          6
Energy: -17.502880908381314 Kcal/mole
 H      0.4569171607     1.5782503777     3.4588268871
 F      1.2125592292     1.9847538720     3.1353319515
 H      0.7054593957     1.8298036641     1.4794158630
 F      0.0705862413     1.5427451868     0.8832426429
 H     -0.9690321549     0.9165717638     2.1875000259
 F     -1.1285826563     0.8467924017     3.0878130149
          6
Energy: -17.43767753798295 Kcal/mole
 H      0.3598630588     0.3931057636     2.4858505412
 F      1.1158961502     0.0381804337     2.1072597661
 H      0.2466831278     0.0331978576     0.5152520731
 F     -0.5458691109     0.2634521097     0.1155860522
 H     -1.3149274179     0.8157977579     1.5869735297
 F     -1.2362031755     0.9577188600     2.4894977091
          6
Energy: -17.493168253308 Kcal/mole
 H     -0.1429419792    -0.1033648533     2.3296327070
 F      0.1459516546    -0.9501560101     2.1286993722
 H     -0.5307893338    -0.9653909579     0.5217830913
 F     -1.0095672354    -0.5150194738    -0.1176121287
 H     -1.2596700745     0.8827116263     0.9114224875
 F     -1.1166735954     1.2671084435     1.7315932587
          6
Energy: -17.524114227415964 Kcal/mole
 H     -0.3344802747     0.3448666431     2.5402497484
 F     -0.1314782724    -0.5446231951     2.6323747445
 H     -0.7532908289    -0.9431303160     1.0006463616
 F     -1.1355457924    -0.5851059393     0.2479255045
 H     -1.1926368835     1.0847625352     0.8655073732
 F     -0.9722545174     1.6448629742     1.5573224576
          6
Energy: -17.47851391276737 Kcal/mole
 H     -0.2173236072    -0.4264436612     2.5430489551
 F     -1.0601585477    -0.5866544763     2.8668556224
 H     -1.6994049934    -0.7448556151     1.2788025099
 F     -1.5515302053    -0.7421758158     0.3738081090
 H      0.1899615967    -0.3428115928     0.5497244493
 F      0.8424763576    -0.2078196773     1.1797170441
          6
Energy: -17.500626231462093 Kcal/mole
 H     -0.3131175363    -1.5523548818     2.4569295888
 F     -1.1203326796    -1.4542146451     2.8807941973
 H     -1.9998926927    -1.0384861787     1.3356772659
 F     -1.9214475869    -0.8707653580     0.4375653065
 H     -0.2120645202    -1.2580424197     0.4207014942
 F      0.5437886268    -1.4913525708     0.8845348626
          6
Energy: -17.551696953613032 Kcal/mole
 H     -0.6515105734    -2.4471159106     1.8490948101
 F     -1.3001430002    -2.1749831692     2.4374048864
 H     -1.7407113078    -0.8201949072     1.4055727045
 F     -1.6111631049    -0.3286120637     0.6423869007
 H     -0.3162955791    -1.4068171648     0.1480329969
 F      0.1877395545    -2.1500104237     0.3337784250
          6
Energy: -17.515264868887698 Kcal/mole
 H     -1.0039976256    -2.8410231431     1.4901443154
 F     -1.7749434204    -2.8368002420     1.9866458246
 H     -2.5284181455    -1.6176492335     0.8972018869
 F     -2.3944527700    -1.0951267868     0.1556409852
 H     -0.7528870466    -1.6890819127    -0.0744559666
 F     -0.0576177336    -2.2278086276     0.1848953570
          6
Energy: -17.555051019467214 Kcal/mole
 H     -0.7138923858    -3.0127750599     1.2953449106
 F     -1.4329483381    -3.1760605923     1.8404920215
 H     -2.1535751839    -1.6292739465     1.5335572008
 F     -2.1289213452    -0.8121508119     1.1181165057
 H     -0.5705219078    -1.1915481523     0.3733250265
 F      0.0888677717    -1.8158145945     0.2453185433
          6
Energy: -17.52794096821475 Kcal/mole
 H     -0.7518618613    -2.9896507423     1.2844026710
 F     -1.4616388136    -3.1598650656     1.8394997456
 H     -2.0604321711    -1.5054492487     1.5895797221
 F     -1.9249368220    -0.7036869940     1.1656607471
 H     -0.3976839308    -1.2264357234     0.4031319075
 F      0.1780574493    -1.9312137926     0.2904432373
          6
Energy: -17.561868886017123 Kcal/mole
 H     -0.8122307270    -3.0848111521     1.1222736169
 F     -1.5422779958    -3.2496558258     1.6521285205
 H     -2.1196472335    -1.5900796343     1.5098117262
 F     -1.9924356005    -0.7536534702     1.1561205156
 H     -0.5104499776    -1.2489619627     0.3521177085
 F      0.0815575960    -1.9161196235     0.1392405410
          6
Energy: -17.54594547200179 Kcal/mole
 H     -0.7324595164    -3.1747292586     1.0215111900
 F     -1.4942815352    -3.3817854869     1.4880344263
 H     -2.2173804617    -1.8149602661     1.1165683120
 F     -2.1417214359    -0.9972134335     0.7085795503
 H     -0.5035971454    -1.3857840551     0.0851283971
 F      0.1690320392    -2.0062969985     0.0266248316
          6
Energy: -17.554776055671653 Kcal/mole
 H     -0.5436328396    -2.8415096919     1.4404095579
 F     -1.3228371735    -3.1289934991     1.8291030960
 H     -2.2529789821    -1.9789749423     0.9222023085
 F     -2.2865418678    -1.3072553537     0.2988602460
 H     -0.5281281499    -1.3808342782     0.0655213152
 F      0.2659446802    -1.7687876936     0.3101219858
          6
Energy: -17.570244642772252 Kcal/mole
 H     -0.4991562019    -2.7692399636     1.4286649058
 F     -1.2646646296    -3.0562877577     1.8439833511
 H     -2.2931398402    -2.0770882503     0.7998052527
 F     -2.3349357991    -1.4743710439     0.1099689917
 H     -0.5961200772    -1.4331329874    -0.0905930990
 F      0.2212873726    -1.7405351631     0.1891174003
          6
Energy: -17.568072720006 Kcal/mole
 H     -0.5548474466    -2.8512687915     1.3671088970
 F     -1.3343541926    -3.0988790798     1.7817742779
 H     -2.3271260487    -2.0537434961     0.7322156542
 F     -2.3281071644    -1.4579240895     0.0351595071
 H     -0.5860007510    -1.5202773423    -0.1648966991
 F      0.2126682280    -1.8682391639     0.1213539474
          6
Energy: -17.576315319872833 Kcal/mole
 H     -0.5827947785    -2.9180050460     1.3206299939
 F     -1.3651017729    -3.1266134925     1.7511730030
 H     -2.3246381651    -2.0733193724     0.6996964773
 F     -2.3382924739    -1.4948125072    -0.0116630427
 H     -0.5844634997    -1.6286534614    -0.2448547657
 F      0.2067405372    -2.0009854640     0.0312865965
          6
Energy: -17.5793731131933 Kcal/mole
 H     -0.5854782001    -2.9142485362     1.3176114776
 F     -1.3649594235    -3.1268127667     1.7513331283
 H     -2.3290399982    -2.0783485684     0.6956458127
 F     -2.3380589668    -1.4945457200    -0.0114481644
 H     -0.5931322084    -1.6244535649    -0.2468643286
 F      0.1990156244    -1.9967802803     0.0265650552
