          6
Energy: -17.58001965333301 Kcal/mole
 H     -7.3776976856    -4.6593137407    -0.3948104325
 F     -7.2930251825    -3.9334440588    -0.9487353120
 H     -5.5258999797    -4.0074977481    -0.9002217914
 F     -4.7798599334    -4.4332215225    -0.5791727028
 H     -5.7399152463    -5.6066467501     0.3198513201
 F     -6.5736297648    -5.9084394265     0.5537963611
