          6
Energy: -17.58024652278442 Kcal/mole
 H     -7.2126868781    -7.0244355117    -3.0605006458
 F     -7.0243217513    -6.4641262768    -3.7615435405
 H     -6.0663769429    -5.3869440779    -2.7452794185
 F     -5.7355163806    -5.2022029592    -1.9102398941
 H     -6.4929700562    -6.6370924169    -1.2082667438
 F     -7.0118413399    -7.3809567737    -1.3436455072
