          6
Energy: -17.579199743875222 Kcal/mole
 H     -7.2685889584    -6.9353155630    -3.0569032301
 F     -7.0319108304    -6.4013247404    -3.7638164249
 H     -5.9342558402    -5.4504399230    -2.7631495205
 F     -5.5698636105    -5.3120312108    -1.9331192009
 H     -6.4837022193    -6.6448460094    -1.2211619212
 F     -7.0891013738    -7.3216285821    -1.3490142305
          6
Energy: -17.578277979806842 Kcal/mole
 H     -7.2752278008    -6.9343149264    -3.0584053372
 F     -7.0315586551    -6.4013778219    -3.7637367416
 H     -5.9287741137    -5.4522188654    -2.7652355867
 F     -5.5701544035    -5.3119368420    -1.9330085399
 H     -6.4780732557    -6.6486568656    -1.2280276367
 F     -7.0893999773    -7.3214264250    -1.3486500202
          6
Energy: -17.578986824648098 Kcal/mole
 H     -7.2764617037    -6.9354483569    -3.0596913427
 F     -7.0314931994    -6.4013176960    -3.7636685220
 H     -5.9148574476    -5.4722153148    -2.7637441694
 F     -5.5515711371    -5.3353069737    -1.9329805672
 H     -6.4742214194    -6.6640142440    -1.2213051776
 F     -7.0854223985    -7.3351145973    -1.3514845882
          6
Energy: -17.57807323089321 Kcal/mole
 H     -7.2712233092    -6.9410835314    -3.0644692978
 F     -7.0282783600    -6.4022890014    -3.7655878371
 H     -5.9160452306    -5.4682218950    -2.7638718580
 F     -5.5515081280    -5.3355188153    -1.9329737936
 H     -6.4808634128    -6.6577873433    -1.2225631288
 F     -7.0850700561    -7.3354449200    -1.3514178568
          6
Energy: -17.57882426905411 Kcal/mole
 H     -7.2766355612    -6.9387920434    -3.0646096969
 F     -7.0279912525    -6.4024105595    -3.7655803892
 H     -5.9247944610    -5.4710847573    -2.7595103532
 F     -5.5510440015    -5.3353669471    -1.9332051614
 H     -6.4741354111    -6.6645303651    -1.2190696082
 F     -7.0854269611    -7.3350872182    -1.3516031800
          6
Energy: -17.579277067485123 Kcal/mole
 H     -7.2773739230    -6.9337597555    -3.0570478473
 F     -7.0315084892    -6.3991347822    -3.7603367826
 H     -5.9189702578    -5.4676305279    -2.7626764695
 F     -5.5513529621    -5.3355501860    -1.9330372062
 H     -6.4709405840    -6.6664135486    -1.2244467701
 F     -7.0855964392    -7.3349873197    -1.3513179339
          6
Energy: -17.579364136001345 Kcal/mole
 H     -7.2826254983    -6.9350969993    -3.0564918210
 F     -7.0389201064    -6.3977046610    -3.7584221286
 H     -5.9221362798    -5.4724000942    -2.7604904326
 F     -5.5511850119    -5.3352971715    -1.9331531704
 H     -6.4723472590    -6.6659735039    -1.2200403200
 F     -7.0855218184    -7.3350106631    -1.3515516859
          6
Energy: -17.57902806201281 Kcal/mole
 H     -7.2668325116    -6.9430027009    -3.0635257926
 F     -7.0225591170    -6.4039311126    -3.7639694601
 H     -5.9207702947    -5.4720921615    -2.7611523988
 F     -5.5512574743    -5.3353135067    -1.9331180546
 H     -6.4694981535    -6.6663916869    -1.2239486687
 F     -7.0754348521    -7.3419023490    -1.3559148106
          6
Energy: -17.57928245961773 Kcal/mole
 H     -7.2533876067    -6.9585270655    -3.0723289874
 F     -7.0066643485    -6.4187525139    -3.7713712375
 H     -5.9090056236    -5.4774847455    -2.7653937069
 F     -5.5518815629    -5.3350274425    -1.9328930630
 H     -6.4722465697    -6.6635296118    -1.2260600704
 F     -7.0752890550    -7.3420541755    -1.3558028056
          6
Energy: -17.57919624057888 Kcal/mole
 H     -7.2561966453    -6.9606039710    -3.0749384534
 F     -7.0065153355    -6.4186423389    -3.7712328113
 H     -5.9151108650    -5.4770186249    -2.7628265783
 F     -5.5515576939    -5.3350521692    -1.9330292433
 H     -6.4682679719    -6.6664632530    -1.2293534540
 F     -7.0755001104    -7.3418985526    -1.3556280992
          6
Energy: -17.578614744423874 Kcal/mole
 H     -7.2582554690    -6.9536317343    -3.0703060605
 F     -7.0064061197    -6.4190122000    -3.7714785490
 H     -5.9203134369    -5.4745095262    -2.7609530873
 F     -5.5512817095    -5.3351852710    -1.9331286276
 H     -6.4641607228    -6.6707733935    -1.2262380737
 F     -7.0757179905    -7.3416699096    -1.3557933630
          6
Energy: -17.579535560293607 Kcal/mole
 H     -7.2591513141    -6.9556991100    -3.0722106708
 F     -7.0063585972    -6.4189025305    -3.7713775139
 H     -5.9140158523    -5.4734637935    -2.7639049921
 F     -5.5516157818    -5.3352407447    -1.9329720359
 H     -6.4668532450    -6.6676836036    -1.2296439488
 F     -7.0755751584    -7.3418338158    -1.3556126892
          6
Energy: -17.579885260917308 Kcal/mole
 H     -7.2529351464    -6.9555545970    -3.0744697753
 F     -7.0077422281    -6.4120514412    -3.7711574761
 H     -5.9043429688    -5.4748847042    -2.7610201883
 F     -5.5377022842    -5.3448814592    -1.9306210284
 H     -6.4499751651    -6.6852330363    -1.2360186427
 F     -7.0568019767    -7.3602061532    -1.3666383667
          6
Energy: -17.579734170673873 Kcal/mole
 H     -7.2479490294    -6.9569731486    -3.0738422110
 F     -7.0080067301    -6.4119761903    -3.7711907669
 H     -5.9038751445    -5.4794339115    -2.7605011103
 F     -5.5377271012    -5.3446401343    -1.9306485643
 H     -6.4485669430    -6.6871402183    -1.2327707699
 F     -7.0568766796    -7.3601049816    -1.3668106588
          6
Energy: -17.57971150392666 Kcal/mole
 H     -7.2502992742    -6.9522377468    -3.0709773311
 F     -7.0078820550    -6.4122273924    -3.7713427422
 H     -5.8992834653    -5.4829185360    -2.7639976000
 F     -5.5267180550    -5.3576936266    -1.9355033410
 H     -6.4449298464    -6.6901274943    -1.2343760407
 F     -7.0570696191    -7.3599465135    -1.3667255029
          6
Energy: -17.57959718583112 Kcal/mole
 H     -7.2563068300    -6.9493798298    -3.0708864324
 F     -7.0075633681    -6.4123789983    -3.7713475641
 H     -5.8836723243    -5.4924692130    -2.7676372124
 F     -5.5124340451    -5.3685191301    -1.9383558868
 H     -6.4350525578    -6.6985533126    -1.2381443437
 F     -7.0575935865    -7.3594995433    -1.3665256032
          6
Energy: -17.578971173149625 Kcal/mole
 H     -7.2663130671    -6.9446684548    -3.0763631481
 F     -7.0184554939    -6.3953648560    -3.7675369177
 H     -5.8931035786    -5.4895966493    -2.7637733524
 F     -5.5119337389    -5.3686715129    -1.9385608557
 H     -6.4387794297    -6.6949627638    -1.2386683669
 F     -7.0573958845    -7.3596900136    -1.3664978049
          6
Energy: -17.57922561229458 Kcal/mole
 H     -7.2547086524    -6.9436691893    -3.0669800940
 F     -7.0090105011    -6.4066489913    -3.7685003898
 H     -5.8873740672    -5.4939862345    -2.7657408914
 F     -5.5122376762    -5.3684386556    -1.9384564823
 H     -6.4379637803    -6.6966222611    -1.2340865938
 F     -7.0574391529    -7.3596019811    -1.3667408574
          6
Energy: -17.579001300057712 Kcal/mole
 H     -7.2524705637    -6.9553589619    -3.0710641242
 F     -7.0074112847    -6.4186337705    -3.7730335101
 H     -5.8840922680    -5.4881205575    -2.7680869521
 F     -5.5124117681    -5.3687498162    -1.9383320292
 H     -6.4429286576    -6.6910225921    -1.2392140513
 F     -7.0571757776    -7.3598990306    -1.3664688576
          6
Energy: -17.579749278960833 Kcal/mole
 H     -7.2540129448    -6.9578413728    -3.0735115218
 F     -7.0073294650    -6.4185020844    -3.7729036813
 H     -5.8818377915    -5.4941826491    -2.7681981617
 F     -5.5125313629    -5.3684282362    -1.9383261298
 H     -6.4412079157    -6.6929666779    -1.2373437750
 F     -7.0572670590    -7.3597959013    -1.3665680715
          6
Energy: -17.57907867989576 Kcal/mole
 H     -7.2506738996    -6.9563277042    -3.0711807391
 F     -7.0075065936    -6.4185823810    -3.7730273239
 H     -5.8809911975    -5.4967065396    -2.7682010324
 F     -5.5022365621    -5.3751331487    -1.9419723493
 H     -6.4319675433    -6.7013158459    -1.2389547204
 F     -7.0577572394    -7.3593529973    -1.3664826145
          6
Energy: -17.579481355536927 Kcal/mole
 H     -7.2525400979    -6.9539883596    -3.0700426328
 F     -7.0074075961    -6.4187064778    -3.7730876978
 H     -5.8774277570    -5.4924926996    -2.7704320185
 F     -5.5024255944    -5.3753566832    -1.9418540006
 H     -6.4339589020    -6.6992823252    -1.2397116321
 F     -7.0576516024    -7.3594608708    -1.3664424621
          6
Energy: -17.579421848103607 Kcal/mole
 H     -7.2575086614    -6.9550884203    -3.0726370300
 F     -7.0071440253    -6.4186481221    -3.7729500711
 H     -5.8761645018    -5.5008145466    -2.7697820004
 F     -5.5024926072    -5.3749152285    -1.9418884826
 H     -6.4339862485    -6.6992306507    -1.2398463264
 F     -7.0576501517    -7.3594636121    -1.3664353169
          6
Energy: -17.5795886248776 Kcal/mole
 H     -7.2546800885    -6.9531338631    -3.0701421792
 F     -7.0072940745    -6.4187518069    -3.7730824171
 H     -5.8755998148    -5.4970806157    -2.7705952088
 F     -5.5025225625    -5.3751133049    -1.9418453437
 H     -6.4372304911    -6.6962145959    -1.2396751303
 F     -7.0574780522    -7.3596236068    -1.3664443985
          6
Energy: -17.578882929301187 Kcal/mole
 H     -7.2508976374    -6.9521580018    -3.0680837638
 F     -7.0074947248    -6.4188035741    -3.7731916113
 H     -5.8787983211    -5.4966390988    -2.7692124814
 F     -5.5023528892    -5.3751367263    -1.9419186942
 H     -6.4323886948    -6.7012165345    -1.2374111480
 F     -7.0577348983    -7.3593582655    -1.3665644975
          6
Energy: -17.578755503720743 Kcal/mole
 H     -7.2580900566    -6.9525295163    -3.0708922248
 F     -7.0071131836    -6.4187838661    -3.7730426289
 H     -5.8729872753    -5.4957079712    -2.7719665766
 F     -5.5026611517    -5.3751861205    -1.9417725959
 H     -6.4322142824    -6.7001916881    -1.2436406738
 F     -7.0577441504    -7.3594126312    -1.3662340356
          6
Energy: -17.579722547751715 Kcal/mole
 H     -7.2529605841    -6.9548058332    -3.0708127268
 F     -7.0073852903    -6.4186631127    -3.7730468461
 H     -5.8754767150    -5.4950590610    -2.7709454533
 F     -5.5025290927    -5.3752205437    -1.9418267641
 H     -6.4374708421    -6.6959501040    -1.2398840093
 F     -7.0574653021    -7.3596376375    -1.3664333179
          6
Energy: -17.57841192931687 Kcal/mole
 H     -7.2453624208    -6.9568017479    -3.0697266074
 F     -7.0077883553    -6.4185572341    -3.7731044623
 H     -5.8740434945    -5.4938356039    -2.7717642875
 F     -5.5026051217    -5.3752854453    -1.9417833268
 H     -6.4406017162    -6.6936708825    -1.2366056168
 F     -7.0572992165    -7.3597585449    -1.3666072291
          6
Energy: -17.579364380585105 Kcal/mole
 H     -7.2485328456    -6.9533946538    -3.0715302424
 F     -7.0029304785    -6.4193521303    -3.7753534165
 H     -5.8720299921    -5.5009639797    -2.7716123811
 F     -5.5027119334    -5.3749073014    -1.9417913851
 H     -6.4365063794    -6.6977137972    -1.2354577770
 F     -7.0575164646    -7.3595440776    -1.3666681193
          6
Energy: -17.579171734234535 Kcal/mole
 H     -7.2494879622    -6.9581928022    -3.0755341416
 F     -7.0028798118    -6.4190975996    -3.7751410189
 H     -5.8715915376    -5.5044250872    -2.7712739521
 F     -5.5027351924    -5.3747236976    -1.9418093380
 H     -6.4390877710    -6.6947886122    -1.2380837155
 F     -7.0573795277    -7.3596992519    -1.3665288193
          6
Energy: -17.579778586394525 Kcal/mole
 H     -7.2431798512    -6.9555865331    -3.0716087503
 F     -6.9973521096    -6.4198929348    -3.7740972485
 H     -5.8725390833    -5.4964230543    -2.7720622341
 F     -5.5026849273    -5.3751481870    -1.9417675214
 H     -6.4359196883    -6.6976980897    -1.2383486963
 F     -7.0575475872    -7.3595449109    -1.3665147627
          6
Energy: -17.57976401929068 Kcal/mole
 H     -7.2420471327    -6.9579037085    -3.0729857741
 F     -6.9974121977    -6.4197700140    -3.7740242006
 H     -5.8733560444    -5.5000777083    -2.7711550967
 F     -5.5026415894    -5.3749543160    -1.9418156430
 H     -6.4394396201    -6.6943385454    -1.2387228660
 F     -7.0573608630    -7.3597231269    -1.3664949139
          6
Energy: -17.58003747777525 Kcal/mole
 H     -7.2537311070    -6.9480416891    -3.0696765082
 F     -6.9967923899    -6.4202931713    -3.7741997495
 H     -5.8710216637    -5.5017968186    -2.7729636754
 F     -5.5008929979    -5.3768901376    -1.9433299660
 H     -6.4499712377    -6.6847197123    -1.2326572211
 F     -7.0782567161    -7.3404675058    -1.3597051995
          6
Energy: -17.579941692279306 Kcal/mole
 H     -7.2554888895    -6.9518499526    -3.0731926738
 F     -6.9966991436    -6.4200911517    -3.7740132250
 H     -5.8725778861    -5.5045506692    -2.7718476398
 F     -5.5008104439    -5.3767440522    -1.9433891691
 H     -6.4534444880    -6.6813640606    -1.2328979137
 F     -7.0780724682    -7.3406455154    -1.3596924313
          6
Energy: -17.579854430056287 Kcal/mole
 H     -7.2568102050    -6.9512875776    -3.0732554329
 F     -6.9966290509    -6.4201209844    -3.7740098958
 H     -5.8679807833    -5.5070200595    -2.7735105534
 F     -5.5010543096    -5.3766130568    -1.9433009554
 H     -6.4514325263    -6.6827944250    -1.2354239141
 F     -7.0781791981    -7.3405696379    -1.3595584328
          6
Energy: -17.579474585195328 Kcal/mole
 H     -7.2515089573    -6.9498786542    -3.0702485948
 F     -6.9969102698    -6.4201957245    -3.7741694016
 H     -5.8678329857    -5.5054887601    -2.7738148478
 F     -5.5010621499    -5.3766942887    -1.9432848133
 H     -6.4531844953    -6.6809074825    -1.2366111439
 F     -7.0780862602    -7.3406697358    -1.3594954530
          6
Energy: -17.579598946212116 Kcal/mole
 H     -7.2548673149    -6.9493693887    -3.0710892167
 F     -6.9967321167    -6.4202227399    -3.7741248086
 H     -5.8728532299    -5.5035510217    -2.7718776125
 F     -5.5007958375    -5.3767970812    -1.9433875792
 H     -6.4466555993    -6.6817576068    -1.2332526283
 F     -7.0770111330    -7.3366147422    -1.3545086931
          6
Energy: -17.579567040139693 Kcal/mole
 H     -7.2572129517    -6.9469317412    -3.0701250173
 F     -6.9966076861    -6.4203520515    -3.7741759571
 H     -5.8682764781    -5.5098557296    -2.7729290769
 F     -5.5010386237    -5.3764626310    -1.9433318014
 H     -6.4500588668    -6.6792413960    -1.2292954407
 F     -7.0768305976    -7.3367482214    -1.3547186128
          6
Energy: -17.5798242751855 Kcal/mole
 H     -7.2572802246    -6.9488880533    -3.0716176315
 F     -6.9966041174    -6.4202482736    -3.7740967774
 H     -5.8714790805    -5.5075252055    -2.7718754505
 F     -5.5008687330    -5.3765862600    -1.9433876938
 H     -6.4491223916    -6.6801140943    -1.2294072259
 F     -7.0768802754    -7.3367019267    -1.3547126828
          6
Energy: -17.57992368890291 Kcal/mole
 H     -7.2611734943    -6.9461724691    -3.0710359178
 F     -6.9963975884    -6.4203923291    -3.7741276360
 H     -5.8689344995    -5.5056834856    -2.7732972475
 F     -5.5010037171    -5.3766839589    -1.9433122708
 H     -6.4579370100    -6.6739881746    -1.2342255777
 F     -7.0886374696    -7.3287031584    -1.3544512828
          6
Energy: -17.579304241625437 Kcal/mole
 H     -7.2606062673    -6.9444503729    -3.0695386441
 F     -6.9964276785    -6.4204836823    -3.7742070629
 H     -5.8656635815    -5.5044902900    -2.7749233228
 F     -5.5011772318    -5.3767472552    -1.9432260113
 H     -6.4629548434    -6.6695567640    -1.2322477757
 F     -7.0883712852    -7.3289382345    -1.3545562006
          6
Energy: -17.5792849921491 Kcal/mole
 H     -7.2712976502    -6.9352345097    -3.0682331249
 F     -7.0154248991    -6.4081690054    -3.7736550479
 H     -5.8731466575    -5.5005696936    -2.7721961975
 F     -5.5007802719    -5.3769552338    -1.9433706790
 H     -6.4574658576    -6.6754536324    -1.2288535267
 F     -7.0886624632    -7.3286254193    -1.3547362577
          6
Energy: -17.578794149404814 Kcal/mole
 H     -7.2728185957    -6.9363407424    -3.0649063330
 F     -7.0204101424    -6.4092233888    -3.7715365533
 H     -5.8753041219    -5.4971913015    -2.7717204296
 F     -5.5006658234    -5.3771344497    -1.9433959173
 H     -6.4534578399    -6.6792174582    -1.2295493684
 F     -7.0888750792    -7.3284257570    -1.3546993449
          6
Energy: -17.579108406003456 Kcal/mole
 H     -7.2771783232    -6.9354799271    -3.0658368553
 F     -7.0201788689    -6.4092690531    -3.7714871912
 H     -5.8709118625    -5.5012956124    -2.7730879445
 F     -5.5008988226    -5.3769167255    -1.9433233738
 H     -6.4561799639    -6.6755958143    -1.2347141248
 F     -7.0887306769    -7.3286178768    -1.3544253665
          6
Energy: -17.5792975469995 Kcal/mole
 H     -7.2763914477    -6.9351743029    -3.0653230949
 F     -7.0202206109    -6.4092852658    -3.7715144450
 H     -5.8723430541    -5.4968975256    -2.7730954243
 F     -5.5008229012    -5.3771500338    -1.9433229771
 H     -6.4553043584    -6.6768826032    -1.2323564975
 F     -7.0887771257    -7.3285496157    -1.3545504332
          6
Energy: -17.57978640890923 Kcal/mole
 H     -7.2611751159    -6.9433612303    -3.0681603320
 F     -7.0016236257    -6.4168652115    -3.7726629694
 H     -5.8691085132    -5.5048449661    -2.7733499665
 F     -5.5009944861    -5.3767284405    -1.9433094742
 H     -6.4569380099    -6.6749125583    -1.2344406869
 F     -7.0886904643    -7.3286541220    -1.3544398718
          6
Energy: -17.578598703028717 Kcal/mole
 H     -7.2703742013    -6.9314906860    -3.0642279367
 F     -7.0061312308    -6.4082350341    -3.7694003804
 H     -5.8772844410    -5.5040716711    -2.7697925789
 F     -5.5005607720    -5.3767694620    -1.9434981854
 H     -6.4571090603    -6.6713835458    -1.2244386758
 F     -7.0921030086    -7.3207841331    -1.3507342137
          6
Energy: -17.579582143988375 Kcal/mole
 H     -7.2687200802    -6.9308692462    -3.0631501774
 F     -7.0062189781    -6.4082680001    -3.7694575531
 H     -5.8735151478    -5.4965956655    -2.7668091423
 F     -5.5059718028    -5.3671273554    -1.9367255042
 H     -6.4640495657    -6.6648255037    -1.2236465299
 F     -7.0917348308    -7.3211320221    -1.3507762352
          6
Energy: -17.579652769827817 Kcal/mole
 H     -7.2661554581    -6.9361219137    -3.0661155358
 F     -7.0063550254    -6.4079893582    -3.7693002476
 H     -5.8766453848    -5.4961542658    -2.7654845336
 F     -5.5058057510    -5.3671507706    -1.9367957716
 H     -6.4624610705    -6.6667638219    -1.2215275527
 F     -7.0918190968    -7.3210291988    -1.3508886421
          6
Energy: -17.579730821802514 Kcal/mole
 H     -7.2672553109    -6.9342065779    -3.0650878053
 F     -7.0062966807    -6.4080909623    -3.7693547664
 H     -5.8687312345    -5.4931770678    -2.7701016782
 F     -5.5026367474    -5.3645617823    -1.9392455325
 H     -6.4613176880    -6.6667717243    -1.2271859220
 F     -7.0918797506    -7.3210287795    -1.3505884786
          6
Energy: -17.579653979033083 Kcal/mole
 H     -7.2648469192    -6.9364204731    -3.0658577138
 F     -7.0064244403    -6.4079735203    -3.7693139245
 H     -5.8701460896    -5.4885886531    -2.7701739262
 F     -5.5025616926    -5.3648051871    -1.9392416999
 H     -6.4576788580    -6.6672377581    -1.2306449649
 F     -7.0880843269    -7.3219280182    -1.3525408549
          6
Energy: -17.579957497260068 Kcal/mole
 H     -7.2678534188    -6.9327400043    -3.0642162820
 F     -7.0062649525    -6.4081687607    -3.7694009987
 H     -5.8718888876    -5.4936264442    -2.7686329667
 F     -5.5024692412    -5.3645379440    -1.9393234443
 H     -6.4587182065    -6.6668327311    -1.2274934305
 F     -7.0880291919    -7.3219495040    -1.3527080365
          6
Energy: -17.57977051195462 Kcal/mole
 H     -7.2654135428    -6.9337519153    -3.0640691729
 F     -7.0063943823    -6.4081150811    -3.7694088025
 H     -5.8740286297    -5.4883450755    -2.7684812647
 F     -5.5023557329    -5.3648181084    -1.9393314917
 H     -6.4558656003    -6.6696739617    -1.2270340962
 F     -7.0881805161    -7.3217987833    -1.3527324031
          6
Energy: -17.579900074283387 Kcal/mole
 H     -7.2658936454    -6.9342295678    -3.0651026993
 F     -7.0076545126    -6.4047995762    -3.7678867588
 H     -5.8737323540    -5.4950281503    -2.7675895035
 F     -5.5023714496    -5.3644635867    -1.9393787976
 H     -6.4585422534    -6.6669234036    -1.2279042263
 F     -7.0880385258    -7.3219446940    -1.3526862447
          6
Energy: -17.580149228379014 Kcal/mole
 H     -7.2668606380    -6.9313110189    -3.0632689861
 F     -7.0076032158    -6.4049543985    -3.7679840330
 H     -5.8746739802    -5.4921447753    -2.7676159929
 F     -5.5023214985    -5.3646165431    -1.9393773924
 H     -6.4566566795    -6.6687618910    -1.2277950059
 F     -7.0881385511    -7.3218471665    -1.3526920386
          6
Energy: -17.579909701117288 Kcal/mole
 H     -7.2660604732    -6.9346655103    -3.0654926872
 F     -7.0076456627    -6.4047764505    -3.7678660708
 H     -5.8736203829    -5.4929710027    -2.7679612262
 F     -5.5023773894    -5.3645727136    -1.9393590785
 H     -6.4562988293    -6.6690423401    -1.2281392095
 F     -7.0881575343    -7.3218322893    -1.3526737794
          6
Energy: -17.58023153608781 Kcal/mole
 H     -7.2660532353    -6.9332369053    -3.0644146480
 F     -7.0076460467    -6.4048522347    -3.7679232583
 H     -5.8731692639    -5.4910949571    -2.7684515326
 F     -5.5024013202    -5.3646722335    -1.9393330689
 H     -6.4585806885    -6.6666921760    -1.2289287799
 F     -7.0880364869    -7.3219569601    -1.3526318945
          6
Energy: -17.579995457907387 Kcal/mole
 H     -7.2655279462    -6.9312643734    -3.0627453961
 F     -7.0076739121    -6.4049568729    -3.7680118083
 H     -5.8710609543    -5.4907938528    -2.7694367487
 F     -5.5025131612    -5.3646882064    -1.9392808055
 H     -6.4572646024    -6.6677188340    -1.2302061221
 F     -7.0881063022    -7.3219024983    -1.3525641345
          6
Energy: -17.579917095787607 Kcal/mole
 H     -7.2637584850    -6.9301377219    -3.0612626184
 F     -7.0077677779    -6.4050166392    -3.7680904662
 H     -5.8715783915    -5.4884355937    -2.7695615591
 F     -5.5024857123    -5.3648133066    -1.9392741846
 H     -6.4574131526    -6.6681526535    -1.2271616278
 F     -7.0880984220    -7.3218794852    -1.3527256379
          6
Energy: -17.580070575676984 Kcal/mole
 H     -7.2684401808    -6.9329873188    -3.0651086159
 F     -7.0075194247    -6.4048654747    -3.7678864449
 H     -5.8719707765    -5.4922472055    -2.7688099463
 F     -5.5024648972    -5.3646111094    -1.9393140559
 H     -6.4579924904    -6.6673260102    -1.2285680590
 F     -7.0880676895    -7.3219233367    -1.3526510299
          6
Energy: -17.580063918267456 Kcal/mole
 H     -7.2637129582    -6.9322745950    -3.0628389235
 F     -7.0077701930    -6.4049032830    -3.7680068469
 H     -5.8715357038    -5.4890930442    -2.7694823676
 F     -5.5024879768    -5.3647784303    -1.9392783855
 H     -6.4574848977    -6.6678951925    -1.2281460540
 F     -7.0880946161    -7.3218931429    -1.3526734163
          6
Energy: -17.58007975201741 Kcal/mole
 H     -7.2683863245    -6.9307157246    -3.0633876555
 F     -7.0075222817    -6.4049859775    -3.7679777379
 H     -5.8732284362    -5.4923608230    -2.7682310037
 F     -5.5023981813    -5.3646050822    -1.9393447675
 H     -6.4581707209    -6.6670699016    -1.2290153886
 F     -7.0880582347    -7.3219369226    -1.3526273001
          6
Energy: -17.580146143562047 Kcal/mole
 H     -7.2642057069    -6.9328673954    -3.0634618368
 F     -7.0077440538    -6.4048718363    -3.7679738027
 H     -5.8742472766    -5.4921110553    -2.7678128776
 F     -5.5023441342    -5.3646183318    -1.9393669481
 H     -6.4587177066    -6.6673865244    -1.2246341893
 F     -7.0880292184    -7.3219201265    -1.3528597126
          6
Energy: -17.58008268690952 Kcal/mole
 H     -7.2642236567    -6.9312206019    -3.0622373315
 F     -7.0077431016    -6.4049591949    -3.7680387599
 H     -5.8731610810    -5.4881322938    -2.7689012318
 F     -5.5024017543    -5.3648293959    -1.9393092134
 H     -6.4580501757    -6.6673922412    -1.2279275149
 F     -7.0880646294    -7.3219198233    -1.3526850093
          6
Energy: -17.58002707757106 Kcal/mole
 H     -7.2664943873    -6.9304453728    -3.0624888040
 F     -7.0076226446    -6.4050003190    -3.7680254199
 H     -5.8712845698    -5.4929343296    -2.7690092699
 F     -5.5025012989    -5.3645746590    -1.9393034822
 H     -6.4576109396    -6.6684196224    -1.2248020624
 F     -7.0880879298    -7.3218653231    -1.3528508074
          6
Energy: -17.580188336120216 Kcal/mole
 H     -7.2651701868    -6.9335127626    -3.0642981327
 F     -7.0076928904    -6.4048376011    -3.7679294392
 H     -5.8734019792    -5.4924522698    -2.7681392390
 F     -5.5023889752    -5.3646002312    -1.9393496354
 H     -6.4594332680    -6.6665207388    -1.2255503956
 F     -7.0879912595    -7.3219660545    -1.3528111100
          6
Energy: -17.580221768590548 Kcal/mole
 H     -7.2646468004    -6.9323499301    -3.0632349772
 F     -7.0077206548    -6.4048992867    -3.7679858371
 H     -5.8749342842    -5.4911587241    -2.7676501331
 F     -5.5023076900    -5.3646688508    -1.9393755813
 H     -6.4582732532    -6.6674911915    -1.2262933813
 F     -7.0880527956    -7.3219145742    -1.3527716963
          6
Energy: -17.57992410741076 Kcal/mole
 H     -7.2684559012    -6.9294484643    -3.0624696827
 F     -7.0075185908    -6.4050532027    -3.7680264342
 H     -5.8740716488    -5.4894107758    -2.7683024701
 F     -5.5023534508    -5.3647615754    -1.9393409763
 H     -6.4564580676    -6.6687204141    -1.2290226004
 F     -7.0881490870    -7.3218493668    -1.3526269176
          6
Energy: -17.58015596604696 Kcal/mole
 H     -7.2659859437    -6.9305936214    -3.0618391865
 F     -7.0085516603    -6.4035775157    -3.7667296845
 H     -5.8724428951    -5.4930421812    -2.7684766995
 F     -5.5024398524    -5.3645689378    -1.9393317339
 H     -6.4588913406    -6.6670961196    -1.2252665180
 F     -7.0880200075    -7.3219355318    -1.3528261691
          6
Energy: -17.580145611490536 Kcal/mole
 H     -7.2659951012    -6.9309449624    -3.0621053586
 F     -7.0085511745    -6.4035588779    -3.7667155646
 H     -5.8716972942    -5.4921843198    -2.7689413866
 F     -5.5024794048    -5.3646144453    -1.9393070833
 H     -6.4575954866    -6.6680931509    -1.2265572729
 F     -7.0880887496    -7.3218826416    -1.3527576975
          6
Energy: -17.5802215700449 Kcal/mole
 H     -7.2671081886    -6.9300250129    -3.0618251020
 F     -7.0084921278    -6.4036076791    -3.7667304316
 H     -5.8733826571    -5.4900520867    -2.7685144000
 F     -5.5023900002    -5.3647275554    -1.9393297339
 H     -6.4575899013    -6.6680514767    -1.2268013288
 F     -7.0880890459    -7.3218848523    -1.3527447509
          6
Energy: -17.579758532416747 Kcal/mole
 H     -7.2707494308    -6.9271823286    -3.0610544933
 F     -7.0082989683    -6.4037584769    -3.7667713106
 H     -5.8730231756    -5.4917111916    -2.7684226432
 F     -5.5024090699    -5.3646395437    -1.9393346014
 H     -6.4575717782    -6.6679387955    -1.2274790140
 F     -7.0880900073    -7.3218908298    -1.3527088013
          6
Energy: -17.57999617472774 Kcal/mole
 H     -7.2670069589    -6.9310913582    -3.0625855893
 F     -7.0084974978    -6.4035511120    -3.7666900895
 H     -5.8707577200    -5.4933761931    -2.7691747654
 F     -5.5025292471    -5.3645512192    -1.9392947031
 H     -6.4590333693    -6.6663344113    -1.2285225676
 F     -7.0880124732    -7.3219759387    -1.3526534431
          6
Energy: -17.58009908824755 Kcal/mole
 H     -7.2662295493    -6.9326427005    -3.0634653176
 F     -7.0085387376    -6.4034688168    -3.7666434220
 H     -5.8748011429    -5.4891958409    -2.7680072511
 F     -5.5023147528    -5.3647729772    -1.9393566370
 H     -6.4565475733    -6.6686590856    -1.2288893613
 F     -7.0881443390    -7.3218526201    -1.3526339856
          6
Energy: -17.580147867570588 Kcal/mole
 H     -7.2678779095    -6.9315070330    -3.0632177895
 F     -7.0084512959    -6.4035290614    -3.7666565528
 H     -5.8746405506    -5.4915449216    -2.7677231477
 F     -5.5023232719    -5.3646483639    -1.9393717080
 H     -6.4585276659    -6.6673555339    -1.2257301573
 F     -7.0880392996    -7.3219217705    -1.3528015741
          6
Energy: -17.580144697455864 Kcal/mole
 H     -7.2663577206    -6.9297126905    -3.0613172163
 F     -7.0085319384    -6.4036242471    -3.7667573738
 H     -5.8738551079    -5.4914881926    -2.7680843922
 F     -5.5023649378    -5.3646513733    -1.9393525449
 H     -6.4595158735    -6.6662793064    -1.2263890518
 F     -7.0879868775    -7.3219788619    -1.3527666212
          6
Energy: -17.580258918337734 Kcal/mole
 H     -7.2663799004    -6.9314814698    -3.0626480634
 F     -7.0085307618    -6.4035304174    -3.7666867754
 H     -5.8745684120    -5.4898139979    -2.7680187716
 F     -5.5023270987    -5.3647401854    -1.9393560259
 H     -6.4574286927    -6.6680551655    -1.2275919442
 F     -7.0880975976    -7.3218846567    -1.3527028106
          6
Energy: -17.580165329313616 Kcal/mole
 H     -7.2661302697    -6.9330140479    -3.0637085460
 F     -7.0085440042    -6.4034491177    -3.7666305193
 H     -5.8746721278    -5.4924610022    -2.7675680695
 F     -5.5023215968    -5.3645997680    -1.9393799346
 H     -6.4589637104    -6.6667617576    -1.2266342713
 F     -7.0880161685    -7.3219532690    -1.3527536129
          6
Energy: -17.580107906785486 Kcal/mole
 H     -7.2631150414    -6.9320330474    -3.0618746008
 F     -7.0087039551    -6.4035011575    -3.7667278058
 H     -5.8751447559    -5.4902150550    -2.7676989621
 F     -5.5022965250    -5.3647189103    -1.9393729910
 H     -6.4584071936    -6.6674539707    -1.2258200463
 F     -7.0880456904    -7.3219165487    -1.3527968057
          6
Energy: -17.580116851458172 Kcal/mole
 H     -7.2648220245    -6.9320146388    -3.0624793691
 F     -7.0086134035    -6.4035021341    -3.7666957243
 H     -5.8715804185    -5.4914507474    -2.7691058321
 F     -5.5024856048    -5.3646533596    -1.9392983598
 H     -6.4589134890    -6.6666351137    -1.2275462293
 F     -7.0880188326    -7.3219599871    -1.3527052356
          6
Energy: -17.580209543644173 Kcal/mole
 H     -7.2656802985    -6.9319485965    -3.0627426684
 F     -7.0085678741    -6.4035056374    -3.7666817568
 H     -5.8734592483    -5.4922185376    -2.7681496216
 F     -5.5023859372    -5.3646126301    -1.9393490846
 H     -6.4575290922    -6.6682000746    -1.2263353235
 F     -7.0880922717    -7.3218769696    -1.3527694714
          6
Energy: -17.580074901668013 Kcal/mole
 H     -7.2668974267    -6.9301577916    -3.0618469822
 F     -7.0085033083    -6.4036006355    -3.7667292709
 H     -5.8757112985    -5.4890679158    -2.7676167019
 F     -5.5022664712    -5.3647797633    -1.9393773548
 H     -6.4562105891    -6.6695065457    -1.2261709521
 F     -7.0881622152    -7.3218076643    -1.3527781909
          6
Energy: -17.58024778197847 Kcal/mole
 H     -7.2657477174    -6.9322245925    -3.0629745822
 F     -7.0085642977    -6.4034909965    -3.7666694543
 H     -5.8738580716    -5.4917965972    -2.7680358006
 F     -5.5023647806    -5.3646350131    -1.9393551225
 H     -6.4589169147    -6.6668169914    -1.2265807700
 F     -7.0880186509    -7.3219503389    -1.3527564510
          6
Energy: -17.580199981564192 Kcal/mole
 H     -7.2645861960    -6.9316216601    -3.0620989055
 F     -7.0086259137    -6.4035229807    -3.7667159070
 H     -5.8751778676    -5.4897343246    -2.7677567415
 F     -5.5022947685    -5.3647444119    -1.9393699260
 H     -6.4570829823    -6.6685379833    -1.2268154445
 F     -7.0881159368    -7.3218590443    -1.3527440021
          6
Energy: -17.58024554171226 Kcal/mole
 H     -7.2654285213    -6.9313536074    -3.0622045811
 F     -7.0085812303    -6.4035372002    -3.7667103011
 H     -5.8743749123    -5.4894797464    -2.7681560364
 F     -5.5023373634    -5.3647579167    -1.9393487443
 H     -6.4574542005    -6.6681353788    -1.2270454543
 F     -7.0880962445    -7.3218804015    -1.3527318006
          6
Energy: -17.580252700687538 Kcal/mole
 H     -7.2668344375    -6.9319112786    -3.0631373150
 F     -7.0085066497    -6.4035076171    -3.7666608217
 H     -5.8746793340    -5.4906454930    -2.7678429765
 F     -5.5023212145    -5.3646960765    -1.9393653514
 H     -6.4577917800    -6.6676203927    -1.2280359679
 F     -7.0880783367    -7.3219077204    -1.3526792561
          6
Energy: -17.580270870756237 Kcal/mole
 H     -7.2652174294    -6.9309174982    -3.0618011853
 F     -7.0085924282    -6.4035603348    -3.7667317003
 H     -5.8742293303    -5.4905773243    -2.7680554331
 F     -5.5023450862    -5.3646996927    -1.9393540811
 H     -6.4581247848    -6.6675886615    -1.2265286900
 F     -7.0880606715    -7.3219094036    -1.3527592137
          6
Energy: -17.58027186564857 Kcal/mole
 H     -7.2665014661    -6.9306878464    -3.0620981645
 F     -7.0085243130    -6.4035725173    -3.7667159463
 H     -5.8731568352    -5.4912826629    -2.7684284467
 F     -5.5024019796    -5.3646622761    -1.9393342936
 H     -6.4584334244    -6.6670876003    -1.2275918968
 F     -7.0880442989    -7.3219359838    -1.3527028131
          6
Energy: -17.58029149791838 Kcal/mole
 H     -7.2667184627    -6.9312371318    -3.0625889659
 F     -7.0085128019    -6.4035433790    -3.7666899104
 H     -5.8741835159    -5.4911258164    -2.7679924830
 F     -5.5023475165    -5.3646705965    -1.9393574204
 H     -6.4581647097    -6.6674494234    -1.2270524284
 F     -7.0880585536    -7.3219167899    -1.3527314306
          6
Energy: -17.580298668917806 Kcal/mole
 H     -7.2661980922    -6.9312232447    -3.0623879624
 F     -7.0085404063    -6.4035441157    -3.7667005732
 H     -5.8740031745    -5.4910306455    -2.7680878997
 F     -5.5023570832    -5.3646756451    -1.9393523588
 H     -6.4579286973    -6.6676841019    -1.2270136984
 F     -7.0880710735    -7.3219043407    -1.3527334852
