          6
Energy: -17.57674930812169 Kcal/mole
 H     -7.2139384815    -7.0267932582    -3.0615695586
 F     -7.0339061456    -6.4616180404    -3.7608937547
 H     -6.0722086020    -5.3799704098    -2.7444590871
 F     -5.7352070246    -5.2025728962    -1.9102834108
 H     -6.4826238958    -6.6435917194    -1.2128723098
 F     -7.0123901798    -7.3806120007    -1.3434011925
          6
Energy: -17.577907832243397 Kcal/mole
 H     -7.2201994729    -7.0153531442    -3.0541057712
 F     -7.0335740145    -6.4622249121    -3.7612896914
 H     -6.0367723524    -5.4105943946    -2.7510269010
 F     -5.6954938121    -5.2311450261    -1.9190317796
 H     -6.4774534628    -6.6483759294    -1.2071745793
 F     -7.0126644593    -7.3803582094    -1.3437034440
          6
Energy: -17.572981638437795 Kcal/mole
 H     -7.2056042847    -7.0286303589    -3.0607628133
 F     -7.0029150431    -6.4699491688    -3.7591047061
 H     -6.0463817945    -5.3964601420    -2.7408627262
 F     -5.7015095162    -5.2210942090    -1.9094789994
 H     -6.4737311054    -6.6332476889    -1.1989399229
 F     -7.0085554147    -7.3672010830    -1.3260791118
          6
Energy: -17.57724981348491 Kcal/mole
 H     -7.1966592345    -7.0269035777    -3.0568591908
 F     -7.0033895574    -6.4700407706    -3.7593117843
 H     -6.0357327817    -5.4037805021    -2.7436254277
 F     -5.7020744217    -5.2207058808    -1.9093324445
 H     -6.4654598202    -6.6525215077    -1.1951279717
 F     -6.9954063552    -7.3870606786    -1.3382987661
          6
Energy: -17.57519269303458 Kcal/mole
 H     -7.2105792425    -7.0187729600    -3.0500571588
 F     -7.0274610534    -6.4511849290    -3.7466205485
 H     -6.0469778392    -5.3975630052    -2.7219157632
 F     -5.6995429032    -5.2250286052    -1.8910067152
 H     -6.4748187437    -6.6442372740    -1.2038420329
 F     -6.9949098860    -7.3875001381    -1.3378365053
          6
Energy: -17.576549983165194 Kcal/mole
 H     -7.2519262662    -6.9879931260    -3.0618239807
 F     -7.0519212389    -6.4182238122    -3.7519326085
 H     -6.0524962475    -5.3766811819    -2.7213615717
 F     -5.7026117902    -5.2220416862    -1.8879610120
 H     -6.4933134694    -6.6398133530    -1.2121541570
 F     -7.0321146084    -7.3698672764    -1.3448327220
          6
Energy: -17.577078769691468 Kcal/mole
 H     -7.2487338488    -6.9775864070    -3.0560480293
 F     -7.0470288301    -6.4084200365    -3.7461594175
 H     -6.0487332446    -5.3897245455    -2.7195976696
 F     -5.7064251270    -5.2262136525    -1.8847453829
 H     -6.4865331827    -6.6456300843    -1.2080654851
 F     -7.0324742869    -7.3695587123    -1.3450496166
          6
Energy: -17.572914209434032 Kcal/mole
 H     -7.2564315149    -6.9647967815    -3.0424585271
 F     -7.0682467518    -6.3952153069    -3.7360379664
 H     -6.0598801944    -5.3789177637    -2.7107314475
 F     -5.6939052747    -5.2389468469    -1.8816599786
 H     -6.4826336014    -6.6481633582    -1.2103219413
 F     -7.0326811507    -7.3694243280    -1.3449299168
          6
Energy: -17.572146606493504 Kcal/mole
 H     -7.2610753582    -6.9527925990    -3.0340400005
 F     -7.0680004066    -6.3958521010    -3.7364845498
 H     -6.0136976466    -5.4052495977    -2.7374816378
 F     -5.6423433476    -5.2475454103    -1.9140046351
 H     -6.4608935100    -6.6555406315    -1.2122256285
 F     -7.0188197139    -7.3708539163    -1.3461444676
          6
Energy: -17.57894735944575 Kcal/mole
 H     -7.2188334521    -6.9861057434    -3.0588355179
 F     -7.0134527634    -6.4208333078    -3.7510600814
 H     -5.9944405845    -5.4046133915    -2.7331663564
 F     -5.6456194409    -5.2526618403    -1.8988261764
 H     -6.4632505896    -6.6535819885    -1.2129063092
 F     -7.0186946763    -7.3709578178    -1.3461083591
          6
Energy: -17.578135217891884 Kcal/mole
 H     -7.2184717417    -6.9830157565    -3.0562174835
 F     -7.0134719513    -6.4209972245    -3.7511989621
 H     -5.9898804373    -5.4086926034    -2.7343055075
 F     -5.6458613462    -5.2524454475    -1.8987657471
 H     -6.4671427787    -6.6607021776    -1.2123784409
 F     -7.0254448065    -7.3749938413    -1.3501291755
          6
Energy: -17.57749311413113 Kcal/mole
 H     -7.2234557172    -6.9877576980    -3.0566316700
 F     -7.0011112455    -6.4416226118    -3.7589054084
 H     -5.9362678908    -5.4627439355    -2.7489151767
 F     -5.5818473314    -5.3133473574    -1.9164755515
 H     -6.4493258993    -6.6727784428    -1.2242822599
 F     -7.0263899508    -7.3743532233    -1.3494977054
          6
Energy: -17.577328868629934 Kcal/mole
 H     -7.2213095288    -6.9923105292    -3.0615619038
 F     -6.9944078412    -6.4433569274    -3.7601709270
 H     -5.9292416457    -5.4588766681    -2.7525516822
 F     -5.5822200574    -5.3135525070    -1.9162826433
 H     -6.4486540578    -6.6739267123    -1.2209976110
 F     -7.0264255904    -7.3742923103    -1.3496719485
          6
Energy: -17.574895836892665 Kcal/mole
 H     -7.2198784305    -6.9885071134    -3.0581297692
 F     -6.9944837577    -6.4435586899    -3.7603529938
 H     -5.9488209634    -5.4503712942    -2.7455875625
 F     -5.5811814199    -5.3140036974    -1.9166520737
 H     -6.4401180563    -6.6809782569    -1.2214472041
 F     -7.0268784056    -7.3739182421    -1.3496480986
          6
Energy: -17.57674455422267 Kcal/mole
 H     -7.2384884213    -6.9834103439    -3.0500052090
 F     -7.0114338693    -6.4391615671    -3.7522362959
 H     -5.9496172497    -5.4379788579    -2.7351884989
 F     -5.6058758297    -5.2896634876    -1.8980903045
 H     -6.4852372770    -6.6581417006    -1.2059770547
 F     -7.0600444189    -7.3600154495    -1.3396145877
          6
Energy: -17.575769812000146 Kcal/mole
 H     -7.2382388857    -6.9731257682    -3.0459645479
 F     -7.0023069716    -6.4309642040    -3.7468824962
 H     -5.9477811335    -5.4442451113    -2.7340688496
 F     -5.6074594364    -5.2881933703    -1.8969798480
 H     -6.4759785481    -6.6654367852    -1.2080511465
 F     -7.0605355730    -7.3596284621    -1.3395045619
          6
Energy: -17.578285577916233 Kcal/mole
 H     -7.2619486461    -6.9574880015    -3.0347679456
 F     -7.0362912832    -6.4077597975    -3.7331708782
 H     -5.9701532201    -5.4344501413    -2.7263871096
 F     -5.6062726489    -5.2887129708    -1.8973873466
 H     -6.4813056145    -6.6543872664    -1.1906929464
 F     -7.0760159825    -7.3401128374    -1.3210348794
          6
Energy: -17.576416097621745 Kcal/mole
 H     -7.2830082951    -6.9551463719    -3.0286618552
 F     -7.0579342590    -6.4080273310    -3.7292983040
 H     -5.9753054274    -5.4372612917    -2.7252333161
 F     -5.6216610474    -5.2873519419    -1.8925558039
 H     -6.4963042329    -6.6423920627    -1.1937491396
 F     -7.0764338508    -7.3404352368    -1.3244180094
          6
Energy: -17.57494686400969 Kcal/mole
 H     -7.3037929899    -6.9522777486    -3.0305693672
 F     -7.0852585633    -6.3941470565    -3.7245591618
 H     -6.0076723151    -5.4135934966    -2.7299795038
 F     -5.6309187259    -5.2764149115    -1.9052809111
 H     -6.4806390380    -6.6584457105    -1.2060542990
 F     -7.0676721296    -7.3517761852    -1.3308501415
          6
Energy: -17.577397899080836 Kcal/mole
 H     -7.2808007186    -6.9677511414    -3.0363817989
 F     -7.0864782502    -6.3933262288    -3.7242508257
 H     -6.0163355874    -5.4122895181    -2.7261804768
 F     -5.6304591593    -5.2764840846    -1.9054824407
 H     -6.4377482100    -6.6824646936    -1.2159757738
 F     -7.0122759618    -7.3857604988    -1.3431837637
          6
Energy: -17.573847349150242 Kcal/mole
 H     -7.2846833445    -6.9532062813    -3.0420488285
 F     -7.0651236748    -6.3994735932    -3.7392307714
 H     -5.9933865081    -5.4244410940    -2.7344830649
 F     -5.6316765550    -5.2758394716    -1.9050420075
 H     -6.5005341128    -6.6269520781    -1.2084831299
 F     -7.0768102313    -7.3290306257    -1.3345011773
          6
Energy: -17.577686395447927 Kcal/mole
 H     -7.2917372884    -6.9369976392    -3.0317133320
 F     -7.0647494793    -6.4003334242    -3.7397790456
 H     -5.9751290952    -5.4320912345    -2.7397688797
 F     -5.6129328267    -5.2916084184    -1.9091260915
 H     -6.5009503421    -6.6440306269    -1.2037131740
 F     -7.0910119872    -7.3335595909    -1.3351135651
          6
Energy: -17.577860896302695 Kcal/mole
 H     -7.2918906299    -6.9405295338    -3.0477647584
 F     -7.0585813637    -6.3896328496    -3.7427242030
 H     -5.9863348522    -5.4306307403    -2.7350345356
 F     -5.6123383872    -5.2916858943    -1.9093772375
 H     -6.4928765948    -6.6513127211    -1.2022381550
 F     -7.0914402808    -7.3331732927    -1.3351918114
          6
Energy: -17.57649615085154 Kcal/mole
 H     -7.2879625210    -6.9376504538    -3.0552482636
 F     -7.0751189633    -6.3805462507    -3.7518267063
 H     -5.9753453121    -5.4216055105    -2.7413766393
 F     -5.6129213569    -5.2921646619    -1.9090408036
 H     -6.4966789700    -6.6631763709    -1.2211971704
 F     -7.0849695824    -7.3523051020    -1.3622813557
          6
Energy: -17.575198374304364 Kcal/mole
 H     -7.3141043397    -6.9142294878    -3.0662149580
 F     -7.0715611310    -6.3708308854    -3.7639109884
 H     -5.9513950002    -5.4437150574    -2.7614743100
 F     -5.5630929741    -5.3245540900    -1.9393361219
 H     -6.4593255504    -6.6641439737    -1.2434501559
 F     -7.0782577062    -7.3299345607    -1.3640108491
          6
Energy: -17.57572189778722 Kcal/mole
 H     -7.3074809294    -6.9226145718    -3.0705434371
 F     -7.0719124876    -6.3703860760    -3.7636813726
 H     -5.9605586506    -5.4329688605    -2.7690330275
 F     -5.5799830376    -5.3052916145    -1.9445636687
 H     -6.4750948289    -6.6549607915    -1.2268544579
 F     -7.0789315099    -7.3330287653    -1.3552837594
          6
Energy: -17.57887707050304 Kcal/mole
 H     -7.3020655962    -6.9125357284    -3.0608440045
 F     -7.0721997585    -6.3709207354    -3.7641959051
 H     -5.9598809725    -5.4309205934    -2.7696598152
 F     -5.5800189869    -5.3054002703    -1.9445304191
 H     -6.4837893072    -6.6480984474    -1.2332058270
 F     -7.0896404347    -7.3241984490    -1.3625201691
          6
Energy: -17.57789743593213 Kcal/mole
 H     -7.2901314183    -6.9238801494    -3.0712994413
 F     -7.0530602833    -6.3816261095    -3.7717613126
 H     -5.9577873826    -5.4382198122    -2.7694764463
 F     -5.5801300470    -5.3050130636    -1.9445401464
 H     -6.4806760217    -6.6521597125    -1.2268303209
 F     -7.0898055873    -7.3239830083    -1.3628583750
          6
Energy: -17.57734573477086 Kcal/mole
 H     -7.2905117865    -6.9202537509    -3.0672840286
 F     -7.0566901735    -6.3772730501    -3.7682750499
 H     -5.9594686761    -5.4432315747    -2.7678780052
 F     -5.5800408583    -5.3047472012    -1.9446249400
 H     -6.4786420001    -6.6541186452    -1.2262956917
 F     -7.0899134875    -7.3238790915    -1.3628867359
          6
Energy: -17.578481987805958 Kcal/mole
 H     -7.2878951038    -6.9260597221    -3.0709490107
 F     -7.0568289825    -6.3769650568    -3.7680806310
 H     -5.9576719629    -5.4412049992    -2.7690414350
 F     -5.5801361698    -5.3048547063    -1.9445632227
 H     -6.4866615823    -6.6455118331    -1.2333335311
 F     -7.0894880672    -7.3243356630    -1.3625133947
          6
Energy: -17.577810367515497 Kcal/mole
 H     -7.2953792880    -6.9224955844    -3.0706743320
 F     -7.0564319638    -6.3771541261    -3.7680952021
 H     -5.9321599316    -5.4437687366    -2.7639399908
 F     -5.5626694663    -5.3238397901    -1.9332879314
 H     -6.4781279043    -6.6511290059    -1.2445799322
 F     -7.0899407591    -7.3240376849    -1.3619167991
          6
Energy: -17.57900084655921 Kcal/mole
 H     -7.2892652852    -6.9196814551    -3.0664269175
 F     -7.0567562975    -6.3773034091    -3.7683205176
 H     -5.9385363242    -5.4532526822    -2.7695288170
 F     -5.5578837728    -5.3254630689    -1.9451123871
 H     -6.4724017729    -6.6574622608    -1.2319319180
 F     -7.0891143638    -7.3237821029    -1.3606659395
          6
Energy: -17.577436240772556 Kcal/mole
 H     -7.3007194994    -6.9206735522    -3.0711034270
 F     -7.0561486779    -6.3772507807    -3.7680724396
 H     -5.9388112973    -5.4575511553    -2.7687233025
 F     -5.5578691861    -5.3252350448    -1.9451551178
 H     -6.4736974681    -6.6528260285    -1.2385181393
 F     -7.0871044019    -7.3243846101    -1.3552657518
          6
Energy: -17.578953317375806 Kcal/mole
 H     -7.2611405858    -6.9398060147    -3.0684724158
 F     -7.0173270188    -6.4047015394    -3.7721109204
 H     -5.9173790713    -5.4640526165    -2.7688843117
 F     -5.5536464949    -5.3199495529    -1.9395340117
 H     -6.4790220372    -6.6514164243    -1.2202864327
 F     -7.0868219458    -7.3244593863    -1.3562329017
          6
Energy: -17.57951319185156 Kcal/mole
 H     -7.2647873221    -6.9389613142    -3.0691044291
 F     -7.0171335679    -6.4047463488    -3.7720773935
 H     -5.9198330467    -5.4580520790    -2.7688239923
 F     -5.5535163172    -5.3202678676    -1.9395372115
 H     -6.4760036297    -6.6512806059    -1.2239032535
 F     -7.0856897980    -7.3239812990    -1.3529209023
          6
Energy: -17.57825216599599 Kcal/mole
 H     -7.2651405392    -6.9370033681    -3.0677452989
 F     -7.0171148305    -6.4048502133    -3.7721494922
 H     -5.9197818340    -5.4529490585    -2.7683352862
 F     -5.5624309004    -5.3108686308    -1.9358675918
 H     -6.4748190839    -6.6517869123    -1.2269045889
 F     -7.0857526355    -7.3239544406    -1.3527616884
          6
Energy: -17.578502707599398 Kcal/mole
 H     -7.2616333694    -6.9393740190    -3.0683149823
 F     -7.0173008778    -6.4047244557    -3.7721192719
 H     -5.9239574750    -5.4543980087    -2.7662804970
 F     -5.5622093923    -5.3107917673    -1.9359765936
 H     -6.4584974398    -6.6545608182    -1.2295970057
 F     -7.0631336001    -7.3325728462    -1.3545121913
          6
Energy: -17.57679933335072 Kcal/mole
 H     -7.2508963141    -6.9621513810    -3.0744741303
 F     -7.0185905211    -6.4143997992    -3.7722500422
 H     -5.9247229887    -5.4511844556    -2.7664958313
 F     -5.5621687836    -5.3109622389    -1.9359651706
 H     -6.4660857539    -6.6487361801    -1.2249580039
 F     -7.0627310575    -7.3328818298    -1.3547582796
          6
Energy: -17.579496579856823 Kcal/mole
 H     -7.2600113468    -6.9437100215    -3.0637750100
 F     -7.0266325247    -6.4052261178    -3.7683730591
 H     -5.9245865347    -5.4458125538    -2.7674434847
 F     -5.5621760221    -5.3112472059    -1.9359148998
 H     -6.4622534188    -6.6515454441    -1.2278934694
 F     -7.0629343541    -7.3327328048    -1.3546025599
          6
Energy: -17.57665205448211 Kcal/mole
 H     -7.2599807073    -6.9437234450    -3.0637751212
 F     -7.0266341501    -6.4052254057    -3.7683730532
 H     -5.9095285009    -5.4701490796    -2.7650575945
 F     -5.5401285982    -5.3351737630    -1.9366770203
 H     -6.4589641050    -6.6630711982    -1.2332993739
 F     -7.0637188502    -7.3396993370    -1.3649620488
          6
Energy: -17.578197887848262 Kcal/mole
 H     -7.2559021018    -6.9446529628    -3.0638946244
 F     -7.0149780866    -6.4059144780    -3.7657532027
 H     -5.9099576397    -5.4748166739    -2.7640911381
 F     -5.5401058334    -5.3349261579    -1.9367282885
 H     -6.4501489519    -6.6613351616    -1.2310071744
 F     -7.0595515352    -7.3352848097    -1.3547381861
          6
Energy: -17.578568481139655 Kcal/mole
 H     -7.2744734266    -6.9322941916    -3.0590901046
 F     -7.0349533898    -6.3918688404    -3.7601318949
 H     -5.9187312919    -5.4642993433    -2.7629436258
 F     -5.5375843149    -5.3336915936    -1.9391975498
 H     -6.4441181514    -6.6676403942    -1.2267667350
 F     -7.0598714553    -7.3349503317    -1.3549631316
          6
Energy: -17.579303635402027 Kcal/mole
 H     -7.2508124658    -6.9518375109    -3.0664668611
 F     -7.0139235310    -6.4107172396    -3.7678665222
 H     -5.9177038495    -5.4589282483    -2.7702904804
 F     -5.5494405298    -5.3227619893    -1.9415988144
 H     -6.4557310460    -6.6566036075    -1.2295236288
 F     -7.0592554181    -7.3355358077    -1.3548168847
          6
Energy: -17.579015116754704 Kcal/mole
 H     -7.2558170440    -6.9506539717    -3.0672643404
 F     -7.0136580497    -6.4107800237    -3.7678242178
 H     -5.9143266802    -5.4569115468    -2.7654375293
 F     -5.5470428838    -5.3222753362    -1.9360614363
 H     -6.4576740079    -6.6545346568    -1.2314247441
 F     -7.0591523484    -7.3356455607    -1.3547160349
          6
Energy: -17.579545228658787 Kcal/mole
 H     -7.2542382798    -6.9510762722    -3.0670460985
 F     -7.0137417995    -6.4107576216    -3.7678357950
 H     -5.9133647435    -5.4595317516    -2.7654332215
 F     -5.5470939123    -5.3221363404    -1.9360616648
 H     -6.4578698721    -6.6546130998    -1.2300441962
 F     -7.0591419583    -7.3356413995    -1.3547892698
          6
Energy: -17.576493014272955 Kcal/mole
 H     -7.2581140261    -6.9442357704    -3.0631598416
 F     -7.0135362001    -6.4111204944    -3.7680419520
 H     -5.9090458572    -5.4531431826    -2.7669848994
 F     -5.5389242502    -5.3179172945    -1.9389674145
 H     -6.4449201672    -6.6593110020    -1.2359059639
 F     -7.0573497820    -7.3304836392    -1.3597859778
          6
Energy: -17.578335868678096 Kcal/mole
 H     -7.2458987937    -6.9543436294    -3.0667636716
 F     -7.0141841899    -6.4105842958    -3.7678507771
 H     -5.9121087525    -5.4559119275    -2.7656896806
 F     -5.5381953376    -5.3248035898    -1.9387142505
 H     -6.4309973303    -6.6682435984    -1.2262052573
 F     -7.0335475683    -7.3483151231    -1.3499991669
          6
Energy: -17.578569020909356 Kcal/mole
 H     -7.2398330688    -6.9627638541    -3.0702799034
 F     -6.9962010790    -6.4265196299    -3.7731131594
 H     -5.9124275094    -5.4733816108    -2.7696373451
 F     -5.5500763879    -5.3289884417    -1.9397329666
 H     -6.4652491389    -6.6630179611    -1.2216875958
 F     -7.0733133435    -7.3370765514    -1.3512713139
          6
Energy: -17.5783459362558 Kcal/mole
 H     -7.2562551902    -6.9555945930    -3.0680266864
 F     -7.0117139592    -6.4182034513    -3.7696671549
 H     -5.9173592009    -5.4672218038    -2.7653234319
 F     -5.5599806943    -5.3263580987    -1.9326608234
 H     -6.4761269598    -6.6529776590    -1.2237790712
 F     -7.0727363003    -7.3376091662    -1.3511603659
          6
Energy: -17.57862590615798 Kcal/mole
 H     -7.2597564459    -6.9513632673    -3.0665737141
 F     -7.0126009201    -6.4185568025    -3.7707898863
 H     -5.9247545272    -5.4640093140    -2.7626471878
 F     -5.5595883893    -5.3265285138    -1.9328027919
 H     -6.4670922467    -6.6601545026    -1.2281506794
 F     -7.0732155709    -7.3372284512    -1.3509284622
          6
Energy: -17.578032486266864 Kcal/mole
 H     -7.2651510587    -6.9492473459    -3.0668913225
 F     -7.0123147483    -6.4186690473    -3.7707730379
 H     -5.9180216740    -5.4706876562    -2.7658040648
 F     -5.5552830084    -5.3252264499    -1.9362555744
 H     -6.4672089476    -6.6617146786    -1.2193159809
 F     -7.0732093802    -7.3371456875    -1.3513971226
          6
Energy: -17.5793268354941 Kcal/mole
 H     -7.2559757056    -6.9545012842    -3.0676399127
 F     -7.0128014796    -6.4183903380    -3.7707333270
 H     -5.9131350726    -5.4711274443    -2.7678457991
 F     -5.5555422313    -5.3252031202    -1.9361472651
 H     -6.4701515656    -6.6585291675    -1.2222133460
 F     -7.0730532811    -7.3373146715    -1.3512434240
          6
Energy: -17.57941958702753 Kcal/mole
 H     -7.2554286676    -6.9577692200    -3.0699547581
 F     -7.0128304987    -6.4182169816    -3.7706105298
 H     -5.9235669861    -5.4646873155    -2.7643877686
 F     -5.5549888424    -5.3255447541    -1.9363307056
 H     -6.4668100548    -6.6608877876    -1.2255320495
 F     -7.0732305405    -7.3371895521    -1.3510673745
          6
Energy: -17.57916140745982 Kcal/mole
 H     -7.2560537813    -6.9561243508    -3.0689076906
 F     -7.0127973379    -6.4183042381    -3.7706660743
 H     -5.9157423479    -5.4723733767    -2.7664997520
 F     -5.5554039213    -5.3251370263    -1.9362186698
 H     -6.4716423032    -6.6569750238    -1.2234487745
 F     -7.0729742009    -7.3373971152    -1.3511778874
          6
Energy: -17.57925493688157 Kcal/mole
 H     -7.2677109743    -6.9501509502    -3.0616179665
 F     -7.0264643245    -6.4123897178    -3.7641148781
 H     -5.9186038151    -5.4650644413    -2.7665149347
 F     -5.5552521271    -5.3255247485    -1.9362178644
 H     -6.4631511846    -6.6634981461    -1.2292878652
 F     -7.0734246352    -7.3370510787    -1.3508681371
          6
Energy: -17.578851621740796 Kcal/mole
 H     -7.2645755042    -6.9499538606    -3.0603988444
 F     -7.0266306540    -6.4124001730    -3.7641795498
 H     -5.9226518562    -5.4565595535    -2.7661164149
 F     -5.5550373879    -5.3259759131    -1.9362390049
 H     -6.4696745221    -6.6583168043    -1.2256076657
 F     -7.0730785872    -7.3373259369    -1.3510633632
          6
Energy: -17.579924785830258 Kcal/mole
 H     -7.2687137173    -6.9473869707    -3.0598553040
 F     -7.0264111313    -6.4125363406    -3.7642083833
 H     -5.9217439007    -5.4624309649    -2.7655721492
 F     -5.5550855528    -5.3256644483    -1.9362678770
 H     -6.4664537080    -6.6615165088    -1.2238799478
 F     -7.0732494439    -7.3371561999    -1.3511550147
          6
Energy: -17.57979906867172 Kcal/mole
 H     -7.2601359958    -6.9513133237    -3.0599525145
 F     -7.0268661596    -6.4123280566    -3.7642032265
 H     -5.9346171977    -5.4553043630    -2.7621640192
 F     -5.5698444414    -5.3117731635    -1.9331714795
 H     -6.4724221484    -6.6567292335    -1.2211119742
 F     -7.0729328320    -7.3374101538    -1.3513018493
          6
Energy: -17.579893366222564 Kcal/mole
 H     -7.2714706011    -6.9403446234    -3.0605882225
 F     -7.0316972331    -6.4037158106    -3.7644541538
 H     -5.9336023779    -5.4552715160    -2.7626154625
 F     -5.5698982752    -5.3117749059    -1.9331475314
 H     -6.4740594844    -6.6485309838    -1.2213905286
 F     -7.0775746623    -7.3270319190    -1.3490420500
          6
Energy: -17.57948100380156 Kcal/mole
 H     -7.2767448337    -6.9397936309    -3.0619873230
 F     -7.0314174473    -6.4037450395    -3.7643799347
 H     -5.9361920995    -5.4541052781    -2.7616760009
 F     -5.5697608965    -5.3118367721    -1.9331973677
 H     -6.4737182302    -6.6485301637    -1.2230197091
 F     -7.0775927651    -7.3270319625    -1.3489556257
          6
Energy: -17.57725441354563 Kcal/mole
 H     -7.2774608478    -6.9439031878    -3.0653954710
 F     -7.0313794644    -6.4035270370    -3.7641991404
 H     -5.9326906627    -5.4524330210    -2.7635001464
 F     -5.5699466396    -5.3119254815    -1.9331006010
 H     -6.4676061186    -6.6522294377    -1.2330296988
 F     -7.0779169985    -7.3268357246    -1.3484246189
          6
Energy: -17.579702888982524 Kcal/mole
 H     -7.2717264342    -6.9422817597    -3.0621569460
 F     -7.0316836618    -6.4036130500    -3.7643709366
 H     -5.9366751677    -5.4567049614    -2.7610111940
 F     -5.5697352708    -5.3116988650    -1.9332326342
 H     -6.4731171467    -6.6493310716    -1.2215995537
 F     -7.0776246512    -7.3269894762    -1.3490309617
          6
Energy: -17.57965514861064 Kcal/mole
 H     -7.2695263479    -6.9421160020    -3.0612819462
 F     -7.0318003713    -6.4036218430    -3.7644173534
 H     -5.9346153814    -5.4535921478    -2.7624593528
 F     -5.5698445377    -5.3118639925    -1.9331558127
 H     -6.4777923974    -6.6448692704    -1.2233332407
 F     -7.0773766399    -7.3272261645    -1.3489389936
          6
Energy: -17.57965153222773 Kcal/mole
 H     -7.2705307852    -6.9427406709    -3.0632359119
 F     -7.0318078210    -6.4009308556    -3.7634804908
 H     -5.9349364863    -5.4531585894    -2.7623920217
 F     -5.5698275038    -5.3118869918    -1.9331593845
 H     -6.4760942490    -6.6468084918    -1.2209560852
 F     -7.0774667228    -7.3271232933    -1.3490650962
          6
Energy: -17.5790481245794 Kcal/mole
 H     -7.2780836363    -6.9322448304    -3.0578373325
 F     -7.0314071597    -6.4014876357    -3.7637668730
 H     -5.9345145213    -5.4551798953    -2.7622307297
 F     -5.5698498881    -5.3117797662    -1.9331679406
 H     -6.4827678257    -6.6465161422    -1.2168376980
 F     -7.0891509412    -7.3215399855    -1.3492436206
          6
Energy: -17.579747638565152 Kcal/mole
 H     -7.2720159742    -6.9392872600    -3.0610842852
 F     -7.0317290351    -6.4011140511    -3.7635946296
 H     -5.9371646327    -5.4485764047    -2.7621751011
 F     -5.5697093058    -5.3121300661    -1.9331708916
 H     -6.4812900367    -6.6463669092    -1.2246157284
 F     -7.0892293345    -7.3215479019    -1.3488310140
          6
Energy: -17.579245600235538 Kcal/mole
 H     -7.2694885420    -6.9383475677    -3.0595072431
 F     -7.0318631096    -6.4011638996    -3.7636782881
 H     -5.9306355955    -5.4507165164    -2.7646828707
 F     -5.5700556562    -5.3120165381    -1.9330378602
 H     -6.4855032957    -6.6428119317    -1.2234529101
 F     -7.0890058309    -7.3217364853    -1.3488926988
          6
Energy: -17.579739159116116 Kcal/mole
 H     -7.2743565761    -6.9361860690    -3.0595222742
 F     -7.0316048716    -6.4012785621    -3.7636774907
 H     -5.9378349227    -5.4517747870    -2.7613443511
 F     -5.5696737485    -5.3119603993    -1.9332149610
 H     -6.4797204179    -6.6479510764    -1.2237115110
 F     -7.0893125992    -7.3214638655    -1.3488789807
          6
Energy: -17.579428987843528 Kcal/mole
 H     -7.2759694834    -6.9407564690    -3.0635800655
 F     -7.0315193106    -6.4010361129    -3.7634622343
 H     -5.9343930594    -5.4563800226    -2.7620756337
 F     -5.5698563314    -5.3117161022    -1.9331761681
 H     -6.4819569551    -6.6457801652    -1.2245443251
 F     -7.0891939560    -7.3215790273    -1.3488348018
          6
Energy: -17.579613747566384 Kcal/mole
 H     -7.2770019023    -6.9384108912    -3.0621383532
 F     -7.0314645432    -6.4011605404    -3.7635387138
 H     -5.9352048432    -5.4539731620    -2.7621345817
 F     -5.5698132681    -5.3118437806    -1.9331730411
 H     -6.4849382452    -6.6431195342    -1.2245130216
 F     -7.0890358055    -7.3217201677    -1.3488364624
          6
Energy: -17.57937909706692 Kcal/mole
 H     -7.2734127629    -6.9378342653    -3.0604522894
 F     -7.0316549387    -6.4011911291    -3.7636281555
 H     -5.9352170952    -5.4517648364    -2.7625046245
 F     -5.5698126182    -5.3119609272    -1.9331534111
 H     -6.4876964850    -6.6414413830    -1.2203867031
 F     -7.0888894872    -7.3218091897    -1.3490553540
          6
Energy: -17.579920269659624 Kcal/mole
 H     -7.2747795859    -6.9382897956    -3.0612719193
 F     -7.0315824319    -6.4011669643    -3.7635846761
 H     -5.9366376011    -5.4519036136    -2.7618538069
 F     -5.5697372636    -5.3119535654    -1.9331879355
 H     -6.4791095921    -6.6487794730    -1.2222423846
 F     -7.0893450021    -7.3214199210    -1.3489569144
          6
Energy: -17.58016426800674 Kcal/mole
 H     -7.2735829794    -6.9386759461    -3.0611540782
 F     -7.0316459091    -6.4011464799    -3.7635909273
 H     -5.9357698936    -5.4524912564    -2.7621379996
 F     -5.5697832935    -5.3119223923    -1.9331728598
 H     -6.4826469069    -6.6455226287    -1.2225922095
 F     -7.0891573557    -7.3215926891    -1.3489383570
          6
Energy: -17.579921880826703 Kcal/mole
 H     -7.2755557882    -6.9354487443    -3.0593770857
 F     -7.0315412562    -6.4013176755    -3.7636851926
 H     -5.9335529669    -5.4497212363    -2.7635771743
 F     -5.5699008964    -5.3120693354    -1.9330965149
 H     -6.4815230823    -6.6462612420    -1.2240511372
 F     -7.0892169720    -7.3215535073    -1.3488609643
          6
Energy: -17.57980120642327 Kcal/mole
 H     -7.2744105142    -6.9375801584    -3.0606022084
 F     -7.0316020103    -6.4012046089    -3.7636202027
 H     -5.9343293507    -5.4492463119    -2.7633153602
 F     -5.5698597110    -5.3120945291    -1.9331104035
 H     -6.4806185931    -6.6476585636    -1.2209470873
 F     -7.0892649531    -7.3214793826    -1.3490256270
          6
Energy: -17.579909441941197 Kcal/mole
 H     -7.2750765735    -6.9350933408    -3.0589419348
 F     -7.0315666774    -6.4013365288    -3.7637082764
 H     -5.9351714453    -5.4522567835    -2.7624416523
 F     -5.5698150398    -5.3119348305    -1.9331567517
 H     -6.4793278508    -6.6489159808    -1.2204798454
 F     -7.0893334240    -7.3214126796    -1.3490504131
          6
Energy: -17.579628883217936 Kcal/mole
 H     -7.2689068165    -6.9379709871    -3.0590241928
 F     -7.0318939687    -6.4011838763    -3.7637039128
 H     -5.9341024119    -5.4517541556    -2.7629966016
 F     -5.5698717496    -5.3119614938    -1.9331273129
 H     -6.4827538044    -6.6461810798    -1.2186232319
 F     -7.0891516850    -7.3215577598    -1.3491489021
          6
Energy: -17.58011059870131 Kcal/mole
 H     -7.2742508258    -6.9373666890    -3.0603842751
 F     -7.0316104814    -6.4012159329    -3.7636317636
 H     -5.9360178690    -5.4528787555    -2.7619626561
 F     -5.5697701390    -5.3119018363    -1.9331821613
 H     -6.4831166340    -6.6451275838    -1.2224528480
 F     -7.0891324378    -7.3216136453    -1.3489457498
          6
Energy: -17.580202226752533 Kcal/mole
 H     -7.2754724161    -6.9370581203    -3.0605717227
 F     -7.0315456789    -6.4012323018    -3.7636218199
 H     -5.9345657384    -5.4536276505    -2.7624751184
 F     -5.5698471712    -5.3118621092    -1.9331549764
 H     -6.4821354888    -6.6461512918    -1.2216894127
 F     -7.0891844852    -7.3215593399    -1.3489862483
          6
Energy: -17.580180683306935 Kcal/mole
 H     -7.2757498287    -6.9368165242    -3.0604839484
 F     -7.0315309628    -6.4012451179    -3.7636264761
 H     -5.9350397033    -5.4535922692    -2.7622725567
 F     -5.5698220284    -5.3118639861    -1.9331657218
 H     -6.4816875114    -6.6465322011    -1.2218061809
 F     -7.0892082494    -7.3215391336    -1.3489800540
          6
Energy: -17.580043518384343 Kcal/mole
 H     -7.2742797140    -6.9356857410    -3.0591160202
 F     -7.0316089489    -6.4013051033    -3.7636990415
 H     -5.9359678995    -5.4523184445    -2.7620798383
 F     -5.5697727898    -5.3119315595    -1.9331759451
 H     -6.4817841197    -6.6463437151    -1.2223465052
 F     -7.0892031246    -7.3215491323    -1.3489513911
          6
Energy: -17.580107759571945 Kcal/mole
 H     -7.2735619124    -6.9369950093    -3.0598638760
 F     -7.0316470267    -6.4012356497    -3.7636593695
 H     -5.9362473839    -5.4514745553    -2.7620987896
 F     -5.5697579638    -5.3119763259    -1.9331749397
 H     -6.4804200423    -6.6477763369    -1.2212716744
 F     -7.0892754857    -7.3214731350    -1.3490084084
          6
Energy: -17.58015542235745 Kcal/mole
 H     -7.2751608655    -6.9370881502    -3.0604865946
 F     -7.0315622059    -6.4012307088    -3.7636263357
 H     -5.9336254018    -5.4538436261    -2.7628510598
 F     -5.5698970538    -5.3118506522    -1.9331350336
 H     -6.4825483586    -6.6460015366    -1.2205215389
 F     -7.0891625835    -7.3215672841    -1.3490482013
          6
Energy: -17.58022340710977 Kcal/mole
 H     -7.2746056562    -6.9375933279    -3.0606796876
 F     -7.0315916585    -6.4012039103    -3.7636160926
 H     -5.9346602532    -5.4519891724    -2.7627118915
 F     -5.5698421574    -5.3119490267    -1.9331424161
 H     -6.4819052111    -6.6462005823    -1.2225291754
 F     -7.0891967009    -7.3215567252    -1.3489417008
          6
Energy: -17.58024026843856 Kcal/mole
 H     -7.2743264409    -6.9374888221    -3.0605035039
 F     -7.0316064702    -6.4012094540    -3.7636254387
 H     -5.9348054670    -5.4525414082    -2.7625545852
 F     -5.5698344541    -5.3119197318    -1.9331507608
 H     -6.4824010892    -6.6459328439    -1.2215823970
 F     -7.0891703958    -7.3215709281    -1.3489919252
