          6
Energy: -17.5793731131933 Kcal/mole
 H     -0.5854782001    -2.9142485362     1.3176114776
 F     -1.3649594235    -3.1268127667     1.7513331283
 H     -2.3290399982    -2.0783485684     0.6956458127
 F     -2.3380589668    -1.4945457200    -0.0114481644
 H     -0.5931322084    -1.6244535649    -0.2468643286
 F      0.1990156244    -1.9967802803     0.0265650552
