          6
Energy: -17.58024026843856 Kcal/mole
 H     -7.2743264409    -6.9374888221    -3.0605035039
 F     -7.0316064702    -6.4012094540    -3.7636254387
 H     -5.9348054670    -5.4525414082    -2.7625545852
 F     -5.5698344541    -5.3119197318    -1.9331507608
 H     -6.4824010892    -6.6459328439    -1.2215823970
 F     -7.0891703958    -7.3215709281    -1.3489919252
