          3
Energy: -0.0015536542540247134 Kcal/mole
 Ne     5.4304319123     5.5440176468     5.6562912401
 Ne     0.4524963863    -4.5381778553     5.2326815694
 Ne    -4.8050631764    -0.4439824884     5.0873135902
          3
Energy: -0.008243624418625141 Kcal/mole
 Ne    -5.1401584874     7.1570072945    -5.5470857177
 Ne    -4.0871905082    -1.2541948755    -0.1311428100
 Ne    -6.7479148838     1.2873655676    -3.8367702361
          3
Energy: -6.704005813695156E-4 Kcal/mole
 Ne    -6.8551756839     0.0317580986    -6.3626029297
 Ne     2.1451892807    -6.6273566824    -1.8871558053
 Ne     5.8847007541    -6.7801568631     4.8049944955
          3
Energy: -2.930653069687076E-4 Kcal/mole
 Ne    -6.9299546310    -4.2161919900    -4.4224644871
 Ne     6.4167669704    -0.5216340416     3.1228356819
 Ne     7.0377209118     7.2734680121     7.0501842845
          3
Energy: -6.102496112003319E-4 Kcal/mole
 Ne     7.2472796149     0.2784050524    -5.8157782719
 Ne    -1.1943732418    -2.4402534579    -2.2749694367
 Ne    -3.0797874153    -7.2207722111     4.0464963348
          3
Energy: -0.019733127975005527 Kcal/mole
 Ne    -2.1324322851     6.3797352412    -0.8703606152
 Ne    -3.8308739924    -0.4908711716    -2.8639347893
 Ne    -6.3115901963     7.3766431761    -1.1343268178
          3
Energy: -0.06448859691754019 Kcal/mole
 Ne    -6.1429368076     0.5850184637     6.7272113539
 Ne    -5.1186775714     3.5974102319     5.9378667375
 Ne     6.2797679598    -5.2645810314    -0.7993582316
          3
Energy: -0.003331269985794529 Kcal/mole
 Ne     0.4975116027    -4.6622718252    -3.2849552774
 Ne     2.9578711352    -5.5167721587     3.4793993927
 Ne     3.6879918233     0.6399026041     3.2505606493
          3
Energy: -0.16757255183224953 Kcal/mole
 Ne    -2.4952800942     1.3376878910    -6.7036259003
 Ne    -3.1032318947    -1.7302588949    -4.6281154741
 Ne    -0.4628423583    -0.7835561494    -6.1910718286
          3
Energy: -0.20699943611321533 Kcal/mole
 Ne    -2.6611950515     1.1076339110    -6.0352521992
 Ne    -3.3484568264    -1.8647600468    -5.3791884164
 Ne    -0.3753409896    -0.9973630099    -5.7482925724
