          3
Energy: -1.4877789872128525E-4 Kcal/mole
 Ne    -7.2717124884    -0.5177042134     5.9108721747
 Ne    -3.2531130538     6.6789456777    -2.6863085195
 Ne     3.3540090255     0.4090878033     7.2203178541
          3
Energy: -9.063853761532686E-4 Kcal/mole
 Ne     6.0744483195    -4.6862080040     1.8471205833
 Ne    -4.7848034598    -3.7422714353    -3.1056829569
 Ne     1.1935881962    -0.7739707192     5.7396066342
          3
Energy: -0.001007426355455938 Kcal/mole
 Ne     0.3026407539    -0.6582930065     1.8251008026
 Ne    -1.5951511435    -7.1462625205    -1.0644158330
 Ne     6.0214385255     3.5112238092    -4.3968421960
          3
Energy: -6.742761806196363E-5 Kcal/mole
 Ne    -6.7587919197     7.2461116271     2.2435606425
 Ne     0.2202114453     5.0765385302    -6.6697798591
 Ne    -1.0853885744    -7.1870346815     5.2983401416
          3
Energy: -0.011639343842035904 Kcal/mole
 Ne     7.4657978230     0.4573892858     1.3984204025
 Ne     2.2645114219    -5.0352834468     4.6171067590
 Ne     7.2848084555     0.2121572957    -3.3040366742
          3
Energy: -0.03785158859571833 Kcal/mole
 Ne     2.3003850463    -5.7633773143     6.0468454813
 Ne     0.7805239146     6.8417909378     1.0522061239
 Ne     1.7548501119    -3.2190020310     3.3329910090
          3
Energy: -5.2967734661517334E-5 Kcal/mole
 Ne     5.3388011932     6.0738887919    -7.3087208702
 Ne    -7.3711352786     6.6262197273    -5.5148401114
 Ne    -2.5736833542     1.1690187175     6.2519366403
          3
Energy: -0.01801508426159574 Kcal/mole
 Ne    -2.5915500919     3.1040925269     3.2623320746
 Ne    -0.1662325248    -0.2507116848     5.4653266851
 Ne    -2.7050072502     1.2015836276    -1.6323197291
          3
Energy: -0.006951706476963335 Kcal/mole
 Ne    -0.6675869080     4.9253189512     5.8049549472
 Ne     3.9905154226     2.8281931915     5.5415460027
 Ne    -0.5192889954    -6.1734234746    -4.9563544836
          3
Energy: -0.20699701537579776 Kcal/mole
 Ne     0.1364562272     1.6886549709     3.6373362940
 Ne     2.6029665420     2.6993429756     5.2632359491
 Ne     2.7232586033    -0.0485904197     3.7838714391
