          3
Energy: -0.0029077240582374058 Kcal/mole
 Ne     6.0239143009    -6.3015001663    -6.2436316574
 Ne     1.3760652844     6.9299359450    -1.5583448226
 Ne     0.1325318347     3.6605761695     3.2364142310
          3
Energy: -0.013545141232968808 Kcal/mole
 Ne    -2.5397097220    -4.1953347186     0.5794118559
 Ne    -4.6215153919     4.5666038478     1.4203032937
 Ne    -6.7542131537     6.0799517692     5.1686221235
          3
Energy: -0.004117575446519979 Kcal/mole
 Ne    -1.7708882049     5.6886835871    -4.0608093075
 Ne     5.9177240328     3.9716014482    -4.0362106734
 Ne     4.5767288498    -0.0505080810    -0.1201135878
          3
Energy: -5.255889164690656E-4 Kcal/mole
 Ne    -7.2003405622    -5.1021107317     1.6067043578
 Ne     4.1152919037    -3.3030711743    -1.9243770815
 Ne    -3.2861693237     2.2654029729    -0.9663098666
          3
Energy: -0.05433881979727878 Kcal/mole
 Ne     3.2972593629    -3.1141017478     7.2748256486
 Ne    -3.5790067933    -5.6837157594     5.2633674368
 Ne    -1.8926166513    -4.6987611807     2.3782251908
          3
Energy: -0.013940563666105726 Kcal/mole
 Ne     6.9471881259    -1.4721107299     0.0258472115
 Ne    -1.0092830333     3.5347821486    -5.0504943659
 Ne     3.1767314269     2.0004136518    -6.0350904797
          3
Energy: -0.020822495284340742 Kcal/mole
 Ne     2.5215753080    -7.4821501071    -1.4008641504
 Ne     5.3147226205    -4.4664254288    -2.3522110310
 Ne    -3.3543659027     3.3163009340    -2.9925118841
          3
Energy: -0.06984997583039733 Kcal/mole
 Ne     5.5382064328     1.2652629228     3.1635734994
 Ne     0.5385033018    -3.6372648540    -1.0758255855
 Ne    -0.3906752721    -0.6269957942    -0.8458787504
          3
Energy: -8.27914441478161E-4 Kcal/mole
 Ne    -7.3182586202     4.2847020605     1.7070273914
 Ne     6.8512839848    -0.5064790170    -2.5498591616
 Ne    -6.6683355656    -2.5306126497    -0.9906167699
          3
Energy: -0.20699905797022494 Kcal/mole
 Ne    -3.2790821396     6.3252839406     0.4793718042
 Ne    -1.0268236680     4.3682091666    -0.4350057211
 Ne    -3.6415218205     3.2495071546     0.8532040607
