          24
Energy: -95.64096171877831 Kcal/mole
 H     -3.3004889400    -2.9106048560     1.9677439506
 F     -3.6342710382    -2.5819004063     1.1794344330
 H      0.3800627057    -0.4801220599    -3.3790520442
 F     -0.1942955392    -0.7386414467    -2.7125917429
 H     -1.4173102932    -1.3023092951     5.0192711210
 F     -2.1104380554    -1.8391510475     5.2880904620
 H     -0.3671168356    -0.6421182523     3.3087431413
 F     -0.2463140961    -0.4712204128     4.2015419017
 H     -2.5215656153    -2.9395069674     4.1287121716
 F     -2.6768826972    -3.4753582991     3.4009560624
 H     -2.6258432282    -2.2553291033    -2.3225068085
 F     -2.9583815147    -2.4080024392    -3.1633386232
 H     -2.6150767196    -2.1653967732    -0.0525696733
 F     -2.0848082264    -1.9613400908    -0.7723371326
 H      0.6491216708    -0.2036127165    -5.4204133204
 F      1.2183425746    -0.0646984128    -4.7150202535
 H     -1.4251452076    -0.5645065521    -5.9918598064
 F     -0.6189415431    -0.5355537328    -6.4278487804
 H     -0.3787601110    -0.9256241093     1.0354298879
 F     -0.8430970566    -1.1453938532     1.7950228451
 H      0.2521636305    -0.5759574068    -1.1052393087
 F      0.5538835800    -0.4473978449    -0.2488944534
 H     -2.8391742506    -1.2502745328    -4.3384716808
 F     -2.7440652735    -0.6129711644    -4.9909191493
