          24
Energy: -95.60294600751052 Kcal/mole
 H     -3.3609598908    -2.8057541461     2.0338716009
 F     -3.6412541640    -2.5828294653     1.1896982140
 H      0.4577802428    -0.7868862711    -3.3717557791
 F     -0.1095748868    -1.0895423519    -2.7180001262
 H     -1.6984862167    -0.7683521427     4.9014529166
 F     -2.4486576693    -1.2158167453     5.1805715672
 H     -0.4579271580    -0.4768659004     3.2246834094
 F     -0.4022839190    -0.1594460756     4.0831922822
 H     -2.7632611978    -2.5068383172     4.2069600286
 F     -2.8519265857    -3.1618871727     3.5713985085
 H     -2.6459736364    -2.3661013523    -2.3024920390
 F     -3.0438179320    -2.4105626043    -3.1274963501
 H     -2.5631055767    -2.3591856146    -0.0439893075
 F     -2.0071734415    -2.2491786170    -0.7649101919
 H      0.6894758629    -0.3068336934    -5.3734480800
 F      1.2796447199    -0.2548028559    -4.6735320049
 H     -1.4185992805    -0.5149859387    -5.9151697762
 F     -0.6217897817    -0.4976891554    -6.3686942451
 H     -0.3333453602    -1.0678841758     1.0247108253
 F     -0.8369626241    -1.1992584455     1.7796939064
 H      0.3426023451    -0.8946894640    -1.1160106420
 F      0.6433271289    -0.7277770095    -0.2659554456
 H     -2.8488814098    -1.2159661167    -4.2559863705
 F     -2.7180201407    -0.5563205004    -4.8793899230
