          24
Energy: -95.63024809123631 Kcal/mole
 H     -3.3201575111    -2.8827977351     1.9472289642
 F     -3.6255519753    -2.5744167814     1.1394391347
 H      0.4012573433    -0.4979204995    -3.3761364017
 F     -0.1531896680    -0.7891085924    -2.7062953712
 H     -1.4657575460    -1.2417300433     5.0018271981
 F     -2.1912115333    -1.7353487946     5.2681841782
 H     -0.3458489107    -0.6872707133     3.3001005764
 F     -0.2361796562    -0.5002162172     4.1910956774
 H     -2.6009486719    -2.8577468307     4.1290643837
 F     -2.7461039276    -3.4107674797     3.4121354378
 H     -2.5381041245    -2.3334669726    -2.3349142825
 F     -2.8757938963    -2.4715985766    -3.1762075001
 H     -2.5565218978    -2.2303943796    -0.0691436181
 F     -2.0005957669    -2.0631381804    -0.7789749366
 H      0.6148943397    -0.0981923349    -5.4104467982
 F      1.2022212346    -0.0102203879    -4.7117358029
 H     -1.4723232406    -0.4390547581    -5.9586387319
 F     -0.6784002301    -0.3549366119    -6.4097477997
 H     -0.3300110949    -0.9993589220     1.0318607649
 F     -0.8111518740    -1.1990408215     1.7865260481
 H      0.3163426154    -0.6623836422    -1.0978589551
 F      0.6257325140    -0.5483919240    -0.2421880027
 H     -2.8223573989    -1.2671921917    -4.3052341993
 F     -2.7652330327    -0.5995552825    -4.9312427969
