          24
Energy: -95.60022233738015 Kcal/mole
 H     -2.8781789225    -3.4117719666     2.4767740525
 F     -3.4964728527    -3.0705154548     1.8918419120
 H     -1.4439953132     1.1411005802    -2.4653305666
 F     -1.5571105583     0.4360301830    -1.8900309261
 H     -0.6767664706    -1.9461881872     5.4324364459
 F     -1.0788687943    -2.7414879280     5.6485406885
 H     -0.5056763732    -0.5375853287     3.8830761746
 F     -0.1016363939    -0.5786765151     4.7052393029
 H     -1.5036021489    -3.6117597107     4.3077684128
 F     -1.7155258207    -3.9876734456     3.4986539454
 H     -3.5073390872    -1.6429843470    -1.4521192401
 F     -4.0230975536    -1.6619559756    -2.2100917209
 H     -2.9145738591    -2.1390100456     0.6675316159
 F     -2.5988383596    -1.6658281007    -0.0517033536
 H     -1.9240256618     1.9846443339    -4.3206076964
 F     -1.3947416879     2.2828377687    -3.6337102147
 H     -2.9730695482     0.2689223005    -5.1387562439
 F     -2.9089240465     1.1580963865    -5.3535673222
 H     -1.0446302602    -0.3678883134     1.7097488579
 F     -1.3479661166    -0.7617687285     2.4802906003
 H     -0.8164139419     0.3978801065    -0.3922320834
 F     -0.3949379023     0.4392749905     0.4211149591
 H     -3.3481981020    -1.4409616113    -3.6926396363
 F     -2.9740599786    -1.2727980515    -4.5127802838
