          24
Energy: -94.99998282969864 Kcal/mole
 H     -5.3279811016     1.3881487387    -3.3559607108
 F     -6.0503182292     1.8624767003    -3.6627685643
 H      0.5676481936    -2.8278107460    -6.1015551980
 F      1.4174600548    -3.1409696406    -6.2452225472
 H     -2.4945912542    -2.0936437509    -3.4798237810
 F     -3.2582578713    -1.8701620809    -3.9356288281
 H     -0.3985600897    -1.9239545090    -2.5833579551
 F     -1.1881357981    -2.3832157295    -2.5024980019
 H     -3.8326111103    -0.4416271211    -3.3107054181
 F     -4.0584464995     0.3745943798    -2.9590381912
 H     -6.7159282656    -0.9560902682    -4.9182227388
 F     -6.2520990552    -1.6611332256    -4.5595224575
 H     -6.9477437731     1.0851285967    -4.8008128851
 F     -7.3266293189     0.4861087148    -5.3826289422
 H     -1.6419045156    -2.4112184033    -6.0502796361
 F     -0.8742956543    -2.2179568883    -5.5873372823
 H     -3.7110269854    -3.1384553087    -6.5342522687
 F     -2.9461448636    -2.8350578147    -6.9389673542
 H      1.7178125109    -1.6602269509    -3.2203557173
 F      1.0565232538    -1.1672249573    -2.8196880834
 H      2.3393011765    -2.8786809834    -4.9170925682
 F      2.6999507354    -2.6498926475    -4.1056267383
 H     -5.5359001941    -2.9594277878    -5.3266260514
 F     -5.1132407086    -3.6111246452    -5.8140059497
