          24
Energy: -95.63321014707766 Kcal/mole
 H     -3.3262140083    -2.8983509353     1.9453429965
 F     -3.6236459802    -2.5937893200     1.1331450868
 H      0.3952662720    -0.4700546738    -3.3714208476
 F     -0.1645546989    -0.7523293819    -2.7022344238
 H     -1.4628834074    -1.2526578479     5.0050494359
 F     -2.1868755177    -1.7492445046     5.2698627980
 H     -0.3467027087    -0.6840628977     3.3009683523
 F     -0.2335344426    -0.4998421538     4.1921162980
 H     -2.6095129945    -2.8685804978     4.1328026218
 F     -2.7639452597    -3.4220362701     3.4181513897
 H     -2.5500841174    -2.3372653879    -2.3308916205
 F     -2.9003392078    -2.4635212081    -3.1689070378
 H     -2.5463947733    -2.2539127643    -0.0737020061
 F     -1.9885657410    -2.0883679648    -0.7824408085
 H      0.6205249123    -0.1147070655    -5.4085757407
 F      1.2044606860    -0.0068624805    -4.7098071398
 H     -1.4652316756    -0.4703168172    -5.9584605970
 F     -0.6678219353    -0.4023566699    -6.4061302571
 H     -0.3413218001    -0.9890136969     1.0340947883
 F     -0.8194892994    -1.1949694637     1.7889636939
 H      0.3023431661    -0.6326620732    -1.0983058216
 F      0.6091340025    -0.5214771924    -0.2413307316
 H     -2.8343003224    -1.2606821168    -4.3059575035
 F     -2.7673663237    -0.5986994699    -4.9369787512
