          24
Energy: -95.12663492670193 Kcal/mole
 H     -2.2734715968    -1.0808716531     2.8266411326
 F     -2.5048901257    -1.6917496267     2.1830864994
 H     -0.8746488729    -5.3919723542     0.1702832436
 F      0.0151696096    -5.5943720618     0.2605408008
 H     -0.3449297445    -1.1634488124     6.3091918498
 F     -1.0234419267    -0.5483333865     6.3554868973
 H      0.7001297650    -2.4286000118     4.9683905023
 F      0.7856509364    -2.2760684047     5.8685622849
 H     -1.5747189942    -0.1153590488     4.8548217238
 F     -1.8017371544     0.0293823923     3.9782364911
 H     -1.0226278206    -1.8401193557    -0.8851854071
 F     -1.2703681666    -1.4720126706    -1.6876884845
 H     -1.3316791963    -2.2836479701     1.1913552859
 F     -0.7269023192    -2.5665607538     0.5627900263
 H     -2.8196557912    -5.1147710460    -0.8895465093
 F     -2.4634179400    -5.0168676960    -0.0502619762
 H     -3.2889058713    -4.2260215524    -2.7836218986
 F     -3.3262524057    -5.0775315061    -2.4453542010
 H      0.7199754077    -3.1283886955     2.8215754609
 F      0.3012210061    -2.5157045818     3.3602329846
 H      0.9669069274    -4.7746347770     1.3339834934
 F      1.4541033374    -4.3311598344     1.9718382053
 H     -2.4181763753    -2.1483067306    -2.6753926857
 F     -3.0455911862    -2.6250996693    -3.1443363376
