          24
Energy: -8.112538942804541 Kcal/mole
 H      0.1754853161     1.4578804243    -2.9888868797
 F     -0.2215142906     1.4578804243    -2.1622791661
 H     -0.7171958196     5.1196122305     4.1853769687
 F     -1.4417488853     4.5575518646     4.1853769687
 H      0.4837481225    -1.7079683832     0.6732502551
 F      1.4007477545    -1.7079683832     0.6740718589
 H     -3.2707451731    -1.2898358070     1.6745930339
 F     -3.2846776343    -2.2067299593     1.6745930339
 H      3.3391081403     1.1803118561     3.9903329997
 F      3.7381989313     1.1803118561     3.1647328904
 H      5.8128554255    -2.1260234335    -1.9607291022
 F      5.3231683089    -1.3507199265    -1.9607291022
 H      4.9214274661     4.9548084279     3.4160880161
 F      5.8349002607     4.9548084279     3.4964400763
 H      4.4948885182    -3.9541717683     2.2304332488
 F      5.2677363477    -4.4477254457     2.2304332488
 H     -4.4183978465     2.0317313642     2.6307617937
 F     -3.5648756748     1.6964868230     2.6307617937
 H     -0.4811584426    -4.9214215431     0.1741493569
 F     -1.0310180134    -4.9214215431    -0.5597058416
 H      0.0572733842     0.7011270343     4.5483937820
 F      0.9742733842     0.7011270343     4.5483937820
 H      0.2420614562     4.7989408930    -4.6009967401
 F     -0.3403930373     4.0906783971    -4.6009967401
