          2
Energy: -0.004623081886232263 Kcal/mole
 Ar    -6.7287989233    -2.3910365380     4.3649064306
 Ar    -4.4950877132     4.9361158449     7.3849442587
          2
Energy: -0.1944389709244959 Kcal/mole
 Ar    -3.3939768860     4.1236880137     5.4111885869
 Ar    -2.5717846668     4.5944921532     1.3509901601
          2
Energy: -4.951089974382781E-4 Kcal/mole
 Ar    -5.4821630632    -6.3233851614    -3.3694980730
 Ar     3.5142503525    -1.9968810903     3.2125212438
          2
Energy: -0.17485151904469187 Kcal/mole
 Ar     0.0999583525    -4.8180578252    -1.5812084289
 Ar     1.9037236776    -3.8014401988    -5.3367521028
          2
Energy: -4.875693112803322E-5 Kcal/mole
 Ar     5.3863408200    -7.2784414475    -0.6445757220
 Ar    -4.4550485939     7.1338087015    -2.9024124678
          2
Energy: -0.030521198479886897 Kcal/mole
 Ar    -1.6716687094     0.7945671691    -2.1663177700
 Ar     3.8149339324     2.7191680186    -0.7587984041
          2
Energy: -0.10033605373625104 Kcal/mole
 Ar     3.0448484394     0.6423990841     3.9472475119
 Ar     6.7138732786    -1.9962644889     2.2482044299
          2
Energy: -0.19364020301673157 Kcal/mole
 Ar     1.6269777684     7.0480056001    -3.5287741611
 Ar     5.6002377113     6.1630169728    -2.6047976214
          2
Energy: -0.21488644555626712 Kcal/mole
 Ar    -3.8615118654     5.3304012038    -6.5157239695
 Ar    -3.1681380627     2.5059890317    -4.2917210196
          2
Energy: -0.2338999998779776 Kcal/mole
 Ar    -3.6650703743     5.1551631248    -6.8628552335
 Ar    -2.5483788331     2.3770753348    -4.4946656572
