          2
Energy: -0.0010789186478434303 Kcal/mole
 Ar    -6.7889467994     6.1848227138     0.2663028510
 Ar     0.4575704831    -1.0125159678     2.7045581436
          2
Energy: -0.19385810865687053 Kcal/mole
 Ar    -5.6122178292     2.2976355622    -3.4658744705
 Ar    -7.2990777300     3.5550960335    -7.0694676167
          2
Energy: -0.013414136590112745 Kcal/mole
 Ar     5.6307079949    -1.7656537748     5.3565399374
 Ar    -0.4318404231     0.8136010412     3.3631577769
          2
Energy: -0.04067823543643537 Kcal/mole
 Ar     1.0521005080    -1.4712526861     1.3101746424
 Ar     2.6650599434     0.3956931455    -3.8181836733
          2
Energy: -0.22173595911808983 Kcal/mole
 Ar     6.8271166367    -1.1957469135    -3.9395641297
 Ar     5.8158352419     0.2841626393    -7.4995649119
          2
Energy: -2.162285345749268E-4 Kcal/mole
 Ar     1.9577986194    -1.0534272132    -5.6035811629
 Ar     6.8672238339     5.1650451114     5.6078721490
          2
Energy: -0.0015530500320452003 Kcal/mole
 Ar    -0.8312738215    -2.6758757664     2.1560126575
 Ar    -5.2790748209    -6.3542097661    -5.8641069926
          2
Energy: -0.20644295668925397 Kcal/mole
 Ar    -0.2320513822    -4.5212607688    -0.6640972796
 Ar     3.7826864884    -4.0657871793    -1.3235056902
          2
Energy: -0.20789819361588302 Kcal/mole
 Ar    -3.4985381769     6.2857484743     2.4170361336
 Ar    -5.8098164331     2.9995334293     3.1530308514
          2
Energy: -0.23390000009964507 Kcal/mole
 Ar    -3.5144451869     6.2147687666     2.4944715119
 Ar    -5.6036243582     3.0211353947     2.5911965085
