          2
Energy: -0.0019269868464103094 Kcal/mole
 Ar    -6.1658674108    -3.7380513528    -6.6226048495
 Ar    -5.4582225118    -0.7546746523     2.4022082631
          2
Energy: -0.0017407185663762888 Kcal/mole
 Ar    -3.2649739544    -2.8142706725    -2.3787755016
 Ar    -1.0493040417     6.2269393458    -5.0868094466
          2
Energy: -2.851107058882422E-4 Kcal/mole
 Ar     5.4018895354    -2.2460937439     3.2955846233
 Ar    -4.5110180443    -5.0803407135    -4.8018949904
          2
Energy: -0.21510627634754045 Kcal/mole
 Ar     5.2508579081    -1.0645449007    -4.2104266602
 Ar     5.9157286897    -4.4426036887    -6.3157743821
          2
Energy: -0.20076971519604592 Kcal/mole
 Ar     3.6677361019    -5.2377530352     1.9349894127
 Ar     0.1417931594    -6.2947879452     3.8078805530
          2
Energy: -0.002479672922848899 Kcal/mole
 Ar     0.5545288466    -6.4518132889    -3.4972672283
 Ar    -7.1185507429    -3.4974987886     0.4906647027
          2
Energy: -0.10915244742766013 Kcal/mole
 Ar     3.8516572273    -4.0519145390    -4.0841294853
 Ar     2.3057492327    -7.2937366927    -0.9765928693
          2
Energy: -0.2175281989474664 Kcal/mole
 Ar     5.1822323929     3.8853008862    -2.5152601703
 Ar     5.7722988170     0.3521270025    -1.7121572901
          2
Energy: -0.23000455357583752 Kcal/mole
 Ar    -4.3597241688     3.5239843367     7.0398497830
 Ar    -6.8238661896     2.9264974679     4.0681205012
          2
Energy: -0.23390000012890058 Kcal/mole
 Ar    -4.4518709570     3.4539960172     7.0890259645
 Ar    -6.7772069448     2.7701518756     4.1397221264
