          2
Energy: -3.17334455642109E-4 Kcal/mole
 Ne     4.7185326990    -4.8562200014    -5.2995427867
 Ne     7.3662971752     1.6462182071    -0.3547951893
          2
Energy: -5.221383093599591E-5 Kcal/mole
 Ne    -3.1265453349    -4.2269097815    -2.5452569486
 Ne    -2.6824045204     7.3670347167    -2.5097095251
          2
Energy: -1.7317402567835905E-4 Kcal/mole
 Ne    -1.2359201003     5.9399134133    -5.1748051059
 Ne    -6.3516573328     3.6089781492     2.4836258731
          2
Energy: -3.136935507867416E-4 Kcal/mole
 Ne     0.1246464471    -5.3399427870    -5.9792229401
 Ne     6.4502519597    -5.1684755174    -0.1495803673
          2
Energy: -2.4192780320531838E-4 Kcal/mole
 Ne    -5.8677522762     3.5481445310    -0.3797732066
 Ne     1.8461439706     4.9329823741    -4.7739059806
          2
Energy: -2.5013261241619343E-5 Kcal/mole
 Ne     4.4875824433    -6.5292721002    -4.5404450833
 Ne    -1.1638297038    -2.8868579436     6.7220993438
          2
Energy: -0.006312661191336781 Kcal/mole
 Ne    -5.2604900419     3.4408460095     1.6762735479
 Ne    -2.4071531994     3.1758934247    -2.6596607618
          2
Energy: -5.820987202020625E-5 Kcal/mole
 Ne     6.9008500444     1.7473852316     2.0570995642
 Ne    -2.4289339171     6.8534321815     6.1448703644
          2
Energy: -0.05830929328470304 Kcal/mole
 Ne    -0.0814633370    -2.5181793705     4.0694109898
 Ne     1.6084675907    -5.4223505449     3.6068137737
          2
Energy: -0.06899999995895187 Kcal/mole
 Ne    -0.2598021129    -2.6093642117     4.1465991256
 Ne     1.3380192924    -5.2846325223     4.3110540051
