          2
Energy: -3.4692786970535334E-5 Kcal/mole
 Ne    -0.5847716131    -7.3671101609     7.2597158558
 Ne     0.1024832912     4.7084297073     4.4341698902
          2
Energy: -3.051813205127142E-5 Kcal/mole
 Ne     2.4167495059     4.8536926115    -0.5719739062
 Ne     7.1427043914    -6.5695980875     2.2890446882
          2
Energy: -0.002636793916797718 Kcal/mole
 Ne     6.6904012036    -1.7703948744     2.4741240053
 Ne     4.7251587459    -7.4510344149     2.8899941536
          2
Energy: -1.2103082242734491E-5 Kcal/mole
 Ne     6.1878686483     5.3057630051     5.4491543912
 Ne    -4.2102772945    -4.3339771358     1.1935192483
          2
Energy: -2.223484107385054E-5 Kcal/mole
 Ne    -6.5224870043    -0.1026744360    -2.8079751505
 Ne     5.6418117140    -4.6959793715     0.3336068542
          2
Energy: -0.006849786128569946 Kcal/mole
 Ne    -6.0182949827     4.6290439249    -2.0450738759
 Ne    -3.1351183014     4.7207675350     2.1913411856
          2
Energy: -8.93734385718087E-4 Kcal/mole
 Ne     4.0250179207    -5.2276179994     5.0741821038
 Ne    -1.8346734953    -1.2001779058     3.7992296787
          2
Energy: -1.8144847726263062E-5 Kcal/mole
 Ne    -5.1369358078    -5.6631882413     2.7782255156
 Ne     5.7388313632     2.3818434753     5.6900862542
          2
Energy: -0.0020168738508314645 Kcal/mole
 Ne     4.5316698758     1.0301008815    -3.2923493540
 Ne    -0.5933455040    -1.0876606872    -6.2885643840
          2
Energy: -0.0689999999643308 Kcal/mole
 Ne     2.4537997736    -0.9147564386    -3.2006557286
 Ne     0.2771344610    -0.9394480430    -5.4364356323
