          2
Energy: -2.1847890971953156E-4 Kcal/mole
 Ne     6.6660414096    -6.6293363944     0.6398028127
 Ne    -1.5616261508    -6.5933241808    -3.3385847050
          2
Energy: -2.791011141785339E-4 Kcal/mole
 Ne     0.7592952013     5.8296591311     1.3414888245
 Ne    -6.6048208788     1.8870196976    -1.3410653196
          2
Energy: -1.744125330506771E-5 Kcal/mole
 Ne     6.5278397500     0.6110542428    -4.4899858121
 Ne     0.8196938905     6.0007723765     7.0162280033
          2
Energy: -2.6792148277482826E-4 Kcal/mole
 Ne     2.5997911644    -6.5860272318     6.7053977320
 Ne    -0.2566742142    -1.7939195973    -0.1432599514
          2
Energy: -0.046438294580754186 Kcal/mole
 Ne     1.4140967264    -0.8502322668    -3.7406940952
 Ne    -0.8675126709    -1.6750280356    -5.3182205450
          2
Energy: -3.2045285192591893E-6 Kcal/mole
 Ne     5.0625002995     6.6102136959    -6.3285337520
 Ne    -7.1790594393    -6.6786048732    -2.4747737456
          2
Energy: -0.06437222466330908 Kcal/mole
 Ne    -1.6690180756    -6.2489987987    -0.8335200185
 Ne     0.9366731339    -7.4263485046     0.7741093248
          2
Energy: -0.002245235679479771 Kcal/mole
 Ne     2.3539228101     0.6999643045    -0.5642773286
 Ne     3.2930161301    -4.1927477966     3.1101358600
          2
Energy: -1.4276018464834837E-5 Kcal/mole
 Ne     4.1650857124    -7.4154067370     4.2812875336
 Ne    -7.1285124384     1.4901035501     3.5289881255
          2
Energy: -0.06899999995813774 Kcal/mole
 Ne    -1.1272868216    -2.9238221737     4.6790574807
 Ne    -3.6182343396    -1.4844081090     3.4705551581
