          3
Energy: -0.8695876447279979 Kcal/mole
 Xe    -0.6077803467     6.3461740854    -6.1220957707
 Xe    -2.1927216941     3.0516070420    -4.2400248232
 Xe    -6.0430294008     5.0704960082    -4.0387445413
          3
Energy: -1.139906166278707 Kcal/mole
 Xe     1.5478124266     3.1453310152     6.6396048884
 Xe     3.3820878076    -0.8087054922     6.3918201772
 Xe     5.5041675377     3.4968285067     5.2923633316
          3
Energy: -0.97614436759073 Kcal/mole
 Xe     6.1284894643     0.4145219412    -7.2344213944
 Xe     6.2827719241     0.0456853933    -1.8533886077
 Xe     5.6870957772    -3.4518122056    -4.2536774373
          3
Energy: -0.782120144472693 Kcal/mole
 Xe    -1.7506478559    -2.2853065329     1.8401176394
 Xe    -4.9556308193    -5.5874040169     2.4555689086
 Xe     1.4466562709     0.3921173154     4.2216439506
          3
Energy: -1.2171422798205336 Kcal/mole
 Xe    -0.0563246442    -5.7904820323     4.5155550126
 Xe    -0.5974733216    -1.6288817452     5.3394786194
 Xe     3.5679400033    -3.6943008446     5.2150800879
          3
Energy: -1.2087297423638568 Kcal/mole
 Xe    -2.8508121212    -0.4254234004     0.5520728198
 Xe    -3.2545750776    -3.0251172078    -3.1527796011
 Xe    -7.0140120460    -2.1710670471    -0.3457484920
          3
Energy: -1.2029145380137387 Kcal/mole
 Xe    -6.7961662827    -1.8696630034     4.5452021840
 Xe    -4.3782804221    -5.1262387572     2.4648177763
 Xe    -3.5688913186    -3.4807340503     6.6531106145
          3
Energy: -1.1946799640058883 Kcal/mole
 Xe    -6.8061357038    -5.6770978821     4.0616589181
 Xe    -3.9465900020    -1.6663633310     3.9507970697
 Xe    -3.6945704791    -4.9032082496     1.0536562659
          3
Energy: -1.2457974369268765 Kcal/mole
 Xe    -4.3777628371    -1.8530888904     3.6783304619
 Xe    -4.1216452263    -3.4278486246    -0.3389442837
 Xe    -0.3888497949    -3.4184541208     2.5357670029
          3
Energy: -1.2989903098394011 Kcal/mole
 Xe    -4.3253086808    -1.5184740087     3.4536690498
 Xe    -3.7587796476    -3.5426340326    -0.4349484380
 Xe    -0.4152145166    -3.3059553004     2.4420164361
