          3
Energy: -0.3054719872997083 Kcal/mole
 Xe     4.7943777285     4.4244674891    -3.7384362317
 Xe    -5.1754136195    -0.2096397443    -0.6791176609
 Xe    -3.4402388899    -3.6345167213    -3.9661647960
          3
Energy: -0.06329498612414822 Kcal/mole
 Xe     7.1399765865    -1.0115530004    -5.6943181682
 Xe    -0.6455600293    -3.8153159689     5.4024805064
 Xe    -4.5887659241    -4.5541804768    -0.1185013923
          3
Energy: -0.04522169186599966 Kcal/mole
 Xe    -4.0647277978    -4.7820734671    -3.7090980310
 Xe    -3.3267386450     2.4206100726    -4.2113001298
 Xe     6.6642539538     2.8406458306     3.1639084390
          3
Energy: -0.0027076313952408217 Kcal/mole
 Xe     7.2793801998    -3.3831195622    -5.6436233541
 Xe    -3.8501344656     4.8253280221     1.7676460048
 Xe     4.5582974807    -5.4627501546     6.6618188028
          3
Energy: -0.05892189925733511 Kcal/mole
 Xe    -2.4357393997    -0.2019114571     4.1576002026
 Xe    -6.4912621100    -5.9524387389     1.8921997179
 Xe    -0.9725591674     1.9573463072    -3.8996668724
          3
Energy: -1.0282637401413255 Kcal/mole
 Xe     2.4985963837    -5.3366080229    -1.6755597816
 Xe    -0.8161435520    -5.2234668538    -3.9746035444
 Xe     2.9040865746    -4.2257887889    -6.2378335974
          3
Energy: -1.2495834807397106 Kcal/mole
 Xe     0.7464299865     6.9371579905    -3.6680397691
 Xe    -2.0292825334     7.4989860218    -0.2768353081
 Xe     1.8708066674     4.8469391467     0.0072842463
          3
Energy: -1.243051334727555 Kcal/mole
 Xe    -2.3915673944     3.2758264168     0.5697626714
 Xe    -3.4337296244     6.7088974698     3.0345864292
 Xe    -1.5679526050     7.4760545494    -1.1500682653
          3
Energy: -1.2432530434630422 Kcal/mole
 Xe    -3.5739793558     4.2972296357     1.7155946050
 Xe    -3.6706299335     4.4027155472    -2.9737090092
 Xe     0.0110460759     5.1323276357    -0.8620340741
          3
Energy: -1.2989982367373145 Kcal/mole
 Xe    -3.3224507988     3.6560607279     1.4433278743
 Xe    -3.8374990494     4.5846491937    -2.8438664742
 Xe    -0.0578303181     5.6087132608    -0.8031816234
