          3
Energy: -0.32071246690866145 Kcal/mole
 Xe     7.0193455821     0.9970119907     2.1431787524
 Xe    -5.4451199152     2.0022976879     6.1699081822
 Xe    -3.9262309548     1.0456117905     1.5115984241
          3
Energy: -0.5764548042736587 Kcal/mole
 Xe     7.3712398462     3.1090352968     0.6359252259
 Xe     1.2247676839     2.1348938960     1.9349107591
 Xe     1.2587084785     2.5770947251    -2.5481259126
          3
Energy: -1.0491090757636634 Kcal/mole
 Xe     4.6443506958     3.4486959373     4.9856954212
 Xe     3.8293209337     4.3102894888     0.7219650229
 Xe     7.3601035663     6.6989297737     1.4033197342
          3
Energy: -0.4385376597541421 Kcal/mole
 Xe     4.7092639124     1.0300181598     1.3455490203
 Xe     3.3029725362    -1.8384117187     4.6584888473
 Xe    -2.6999621009     4.6991496167     4.5300171636
          3
Energy: -0.5454815775416719 Kcal/mole
 Xe     0.2691884093     0.3794427039     2.2821586271
 Xe     3.3847614100     1.3519206312     5.1830433441
 Xe    -5.6223794124    -0.3388573498     0.6114423426
          3
Energy: -0.7915979220879727 Kcal/mole
 Xe     7.2364216027     7.3578667592    -6.4493097391
 Xe     4.5829509977     6.8089748403    -2.1834721385
 Xe     3.3128375003     5.5851143284    -5.7283795012
          3
Energy: -1.232426857041908 Kcal/mole
 Xe    -1.1729039071    -1.7161385653     5.1140222954
 Xe    -1.7066639949     2.5870845140     3.0913487074
 Xe     1.0328223375     1.8095990770     6.4251962931
          3
Energy: -1.2446645480339926 Kcal/mole
 Xe    -6.3268115332     5.8518727414     3.2630046433
 Xe    -7.1818728519     3.9446361282     7.0772297679
 Xe    -4.5778563415     7.2717003652     7.2115807024
          3
Energy: -1.2745304598123637 Kcal/mole
 Xe    -0.5625071827     1.9124963506    -0.9771486353
 Xe    -4.8285426896     3.0167312452    -0.9415421395
 Xe    -1.4829267770     6.1056747402    -0.3146794605
          3
Energy: -1.2989916556372059 Kcal/mole
 Xe    -0.5121070083     1.9387551135    -1.0159655640
 Xe    -4.7112708540     3.2894749661    -1.2684048221
 Xe    -1.4675040947     6.2447979044    -0.7473827301
