          6
Energy: -5.50188684218665 Kcal/mole
 Xe    -6.5281743649     1.2964566263    -1.6667354660
 Xe    -3.3436613065    -2.3620701400    -5.5930067463
 Xe    -2.3953245855     1.1721441199    -3.1237475121
 Xe    -4.1193313294    -2.4044283974    -1.2497550865
 Xe    -7.4637042592    -2.2342929167    -4.0971383358
 Xe    -5.7192049407     1.3291186881    -6.0086957390
