          6
Energy: -5.503127465801661 Kcal/mole
 Xe    -0.8841517284     6.0213253452    -1.2515378157
 Xe     2.0046039396     8.5503425480     0.9092008345
 Xe     1.4298557533     6.1054757429     4.5350266830
 Xe     2.5791957608     4.1784125967     0.7564945995
 Xe    -2.0184593932     7.9372054043     2.5411427722
 Xe    -1.4613274463     3.5743963150     2.3819690806
