          6
Energy: -5.502480755611428 Kcal/mole
 Xe    -5.2971854994     7.5523711002    -0.6053576710
 Xe    -2.0731793131     3.4525640290     2.8202849072
 Xe    -5.4713007340     3.2036265906     0.0644471374
 Xe    -1.8834020883     7.7809498371     2.1454677386
 Xe    -5.6457964829     5.9614140229     3.4750417152
 Xe    -1.7125354530     5.0571276477    -1.2833993332
