          6
Energy: -3.733592667327083 Kcal/mole
 Xe     7.4152300458     9.4347329343    -3.5983756985
 Xe     4.2487215183     5.2946351810    -1.6100820307
 Xe     0.7923786170     5.6043346568    -6.1939771806
 Xe     2.1539395008     2.6138817064    -3.7995518161
 Xe     2.4118314622     8.6295318632    -3.6028604477
 Xe    -0.3862619637     5.6831443042    -1.5237799832
          6
Energy: -3.5406475993343745 Kcal/mole
 Xe     1.6363457664     4.9108653790    -7.4311133831
 Xe     5.4612255006     8.6733915483    -6.3233395248
 Xe     0.2812555549     6.2765878842    -1.0053956387
 Xe     0.1981137653     8.3371310636    -4.7206008495
 Xe    -1.3316322106     3.9110977305    -4.7456171524
 Xe    -1.8388623996     7.6245139749    -8.2409129140
          6
Energy: -4.070785209013589 Kcal/mole
 Xe    -5.405167E-40     5.1244061486    -4.5557373514
 Xe     3.8080770757     6.3501655411    -3.5587536283
 Xe     3.1000439374     7.0057602994     0.6199731450
 Xe    -1.0392663359     4.5622271709    -0.2407070083
 Xe     1.7663977159     9.6538769737    -5.4928009034
 Xe    -1.2876128833     8.8166451620    -1.7757514505
          6
Energy: -5.153396446233285 Kcal/mole
 Xe    -1.9540425043     6.6961653066    -1.2904611158
 Xe     0.8546840779     9.3110354169     1.2354681899
 Xe     2.0598100222     6.8722761754     4.8080627259
 Xe     4.7832323458     7.4988097963     1.0446750858
 Xe    -2.0223641934     6.8279194826     3.0752797021
 Xe     1.1527542254     4.8567840045     0.8836671843
          6
Energy: -3.943117040582004 Kcal/mole
 Xe     0.2443673683     4.7267673573     0.5115317830
 Xe     1.2539741919     8.0685020294     3.0084042021
 Xe     3.8773298205     7.3034711330    -0.5661320039
 Xe    -0.6913400582     9.3755293934    -0.4763895894
 Xe    -0.3705032372     3.2967516144     4.4397008322
 Xe    -2.3058413054     7.8232421599     5.2086808282
          6
Energy: -4.892061398496033 Kcal/mole
 Xe    -2.4061070266     8.0463007925    -2.0161850815
 Xe    -1.6598119406     5.8407557114     4.5177354182
 Xe     0.1585804303     6.2141917734     0.8514770313
 Xe    -4.6913468425     5.8482640600     1.2557492467
 Xe    -2.1208414293     2.0187121710     2.2454669165
 Xe    -2.2697850480     9.5436712480     2.1015167320
          6
Energy: -5.301331622553559 Kcal/mole
 Xe    -6.5570470015     7.8201659397    -1.8500341959
 Xe    -5.4455474045     6.0184239021     4.0750265780
 Xe    -2.7829475685     7.8689953375     0.7589366617
 Xe    -9.1948841371     6.4184015744     1.4217700889
 Xe    -5.4625055303     4.3484261617     0.1727113494
 Xe    -6.4783767465     9.6695161304     2.0942728439
          6
Energy: -5.1040963875335965 Kcal/mole
 Xe    -6.6172911825     7.7058073405    -2.0212881702
 Xe    -3.3835942847     5.7206540609     2.9642767648
 Xe    -3.7126650756     4.3136504365    -1.1445812830
 Xe    -5.8012617337     9.1879213785     2.5566406508
 Xe    -7.5086318030     4.6229150815     1.3833064793
 Xe    -2.4573745793     8.5500140094    -0.2351069138
          6
Energy: -5.393639817728584 Kcal/mole
 Xe    -5.3159632207     7.4345199188    -0.6540733924
 Xe    -1.9402612020     3.4888460939     2.8459367209
 Xe    -5.1552902466     3.0559858165     0.0053395516
 Xe    -1.9621187756     7.9045053486     2.0021716881
 Xe    -5.5470595739     6.0150541858     3.5883211877
 Xe    -1.5940981520     5.1894707875    -1.4586188950
          6
Energy: -5.502480755611428 Kcal/mole
 Xe    -5.2971854994     7.5523711002    -0.6053576710
 Xe    -2.0731793131     3.4525640290     2.8202849072
 Xe    -5.4713007340     3.2036265906     0.0644471374
 Xe    -1.8834020883     7.7809498371     2.1454677386
 Xe    -5.6457964829     5.9614140229     3.4750417152
 Xe    -1.7125354530     5.0571276477    -1.2833993332
