          6
Energy: -2.1906585232834193 Kcal/mole
 Xe     0.8652039672    -1.6185649021    -3.1090959123
 Xe    -5.9861493233     1.2960153025     0.6885962685
 Xe    -4.6368252892    -3.2002370100    -3.7319433778
 Xe    -2.1593140636    -0.4212858993     0.9789158521
 Xe    -2.6777159333     0.6740781770    -5.6420679376
 Xe    -4.6166516678    -3.3174065575     4.8428048905
          6
Energy: -1.3882095913484465 Kcal/mole
 Xe     2.3455902715    -0.4314253439     0.1782199548
 Xe    -6.5181982751     2.0006688552    -0.5603731713
 Xe     0.0863381814    -0.7109232652     7.1694015114
 Xe     2.7394449077    -6.0217539043     0.2028333468
 Xe     0.8113258470     3.8141682795     6.0666298057
 Xe    -1.5542369211    -1.6229208927     1.1923083832
          6
Energy: -2.4658762049390686 Kcal/mole
 Xe     3.9538303039     5.2199351815     0.7507470001
 Xe     2.5558212929     8.7577946077    -6.0450698989
 Xe     0.6198693327     4.4263329623     3.9942920494
 Xe    -0.7991858120     7.2910350013     0.5232949085
 Xe     2.1084534007     5.5661734509    -3.1552171849
 Xe    -3.0407375293     4.3601949747     8.6621632311
          6
Energy: -4.157837851364303 Kcal/mole
 Xe     1.1532299892     2.2960150087    -1.1135581432
 Xe    -0.1685413653     8.8806524993     2.2039947892
 Xe     5.6955251514     3.0059765047     2.8373599711
 Xe     1.2342841010     3.3986464443     3.3538219828
 Xe    -2.0531927682     5.5140646129     0.7638865637
 Xe     2.9895655633     5.9274140403     0.4469279531
          6
Energy: -4.238888575410697 Kcal/mole
 Xe     3.1129017404     3.7682264084    -0.5873388097
 Xe     6.3874825017     4.6092694382     2.5927832101
 Xe     1.1525222632     4.7038175061     3.9334330357
 Xe     2.8168655785     8.2460194237    -2.9706242436
 Xe    -0.3531231519     6.1764662350    -0.3089128207
 Xe     3.7029664177     8.3346177542     1.2294497880
          6
Energy: -4.699595876012167 Kcal/mole
 Xe     1.4468446134     4.2617621068    -0.3852940321
 Xe     5.9437036816     5.1439284367    -0.6841416403
 Xe     0.1335086045     5.2776642366     3.5150904963
 Xe     3.2295570570     7.3227755299     1.9320402713
 Xe    -0.6545567656     7.8318509208     0.1591872801
 Xe     4.5807788554     3.5671080092     3.3767315943
          6
Energy: -4.936435350210924 Kcal/mole
 Xe     3.9549338901     4.4860459876     2.6180573762
 Xe     1.3425231128     8.0216616276     2.6600588840
 Xe     0.4400464701     9.6653509899     6.9212244277
 Xe     4.4320942877     7.6484391743     5.7179528517
 Xe    -1.2569875467     4.4912317322     1.9572538954
 Xe     0.6457980452     5.0429372690     5.9472310756
          6
Energy: -5.138246572923124 Kcal/mole
 Xe    -1.6498701825     6.3497884893    -0.5875155827
 Xe     0.5726031980     9.2880217141     1.5471484216
 Xe     0.4263052168     7.0671728272     5.3726456685
 Xe     1.6829158642     5.0544806730     1.7740370645
 Xe    -3.6188539786     7.8121303935     3.0694701975
 Xe    -2.1941294286     3.6568570459     3.7719004034
          6
Energy: -5.324944371654796 Kcal/mole
 Xe    -1.2962873512     5.8657997309    -1.2575374833
 Xe     1.8693617058     8.5959708552     1.1063844927
 Xe     1.4614517191     5.9875736815     4.6301930752
 Xe     2.3911144418     4.0789897455     0.6150985989
 Xe    -2.0207711652     7.9162492823     2.5458635283
 Xe    -1.5219259912     3.5270424909     2.4205840265
          6
Energy: -5.503127465801661 Kcal/mole
 Xe    -0.8841517284     6.0213253452    -1.2515378157
 Xe     2.0046039396     8.5503425480     0.9092008345
 Xe     1.4298557533     6.1054757429     4.5350266830
 Xe     2.5791957608     4.1784125967     0.7564945995
 Xe    -2.0184593932     7.9372054043     2.5411427722
 Xe    -1.4613274463     3.5743963150     2.3819690806
