          2
Energy: -0.42777254013863003 Kcal/mole
 Xe    -3.7611417057    -1.8317115787     2.1881373068
 Xe    -1.9383311371     1.9646539603     0.5926269569
          2
Energy: -0.41030863019183433 Kcal/mole
 Xe     4.4595932882    -5.2113375957    -5.0371317444
 Xe     7.1104959735    -1.8053596208    -6.6640561639
          2
Energy: -0.2744086187113257 Kcal/mole
 Xe     3.1781277480     4.5259888348     3.4291054433
 Xe    -0.1825861805     0.6908657514     4.1976949977
          2
Energy: -0.3551254397763355 Kcal/mole
 Xe    -3.2169071228    -1.7903417479    -0.1157189480
 Xe     1.2711192346    -0.7150808746     1.3505187139
          2
Energy: -0.4245910879846846 Kcal/mole
 Xe    -1.2659162773    -0.3601027197    -4.1346888323
 Xe     0.8096111612     3.5101656353    -3.0288582093
          2
Energy: -0.006154073135420728 Kcal/mole
 Xe     0.9127850601     1.0894188782    -3.3402019080
 Xe     7.4503800355     6.6103866235     1.9636813521
          2
Energy: -0.4323174994057931 Kcal/mole
 Xe    -3.8399888690    -0.7957015369    -0.1732033155
 Xe    -1.8993111228    -1.8492356729    -4.0329916848
          2
Energy: -0.43244683993026667 Kcal/mole
 Xe     4.6738833243     2.0325069705    -0.2733016191
 Xe     7.1346954272     4.7234969980    -2.7196940514
          2
Energy: -0.4275830611839504 Kcal/mole
 Xe     4.1360847660    -6.4241180872     2.1694353872
 Xe     6.9623275299    -5.8944089635    -1.0806765906
          2
Energy: -0.4329999998894362 Kcal/mole
 Xe     4.1891137648    -6.3742892003     2.4063780401
 Xe     6.7649845732    -5.9888849682    -1.1608679914
