          2
Energy: -0.2865473311919022 Kcal/mole
 Xe    -3.9381967408     3.1123899744     1.2255258768
 Xe    -6.0882031851    -0.9684935966     3.4180122138
          2
Energy: -0.0024801585519003957 Kcal/mole
 Xe    -7.0040554077    -0.8841481224     2.2661230854
 Xe     3.8617262338    -3.2085153267     5.9867221771
          2
Energy: 0.03785404786527091 Kcal/mole
 Xe     3.1645750329    -3.7151445418    -0.2442126337
 Xe    -0.6929727612    -4.0650050625    -0.8543392443
          2
Energy: -0.36670050805001186 Kcal/mole
 Xe    -4.6778204053    -4.4295242001     2.0829092813
 Xe    -3.2890589641    -0.1853547857     0.3284822593
          2
Energy: -0.39530594394555074 Kcal/mole
 Xe    -3.2093955318     3.1986758199    -6.2037994280
 Xe    -0.1594098583     3.0139554070    -3.2778033328
          2
Energy: -0.4040589647548527 Kcal/mole
 Xe     2.8950837245     2.5792592666    -3.4055303853
 Xe     4.0524090797     3.8518265466     0.4817070714
          2
Energy: -0.32687525872360296 Kcal/mole
 Xe    -5.0964808983    -0.7089533268    -2.8462172552
 Xe    -2.8142320331     3.1760756880    -0.7974944113
          2
Energy: -0.41084306140307086 Kcal/mole
 Xe     2.1799509929     0.3728355383    -3.0438121764
 Xe     0.3207716836     4.4420550145    -1.9325621923
          2
Energy: -0.4329736432200756 Kcal/mole
 Xe    -1.0313361641    -5.5914376766    -2.9894628868
 Xe    -0.8270507111    -7.2903163998     1.0887696554
          2
Energy: -0.4329999998695958 Kcal/mole
 Xe    -1.0109042580    -5.6371818406    -3.0087333027
 Xe    -0.7811058454    -7.1544231216     1.1330087801
