          30
Energy: -120.25551360067062 Kcal/mole
 H      6.4885566637     6.5247280289    -1.7906359077
 F      6.5039741160     7.4319184751    -1.6577570290
 H      1.0924814126     5.7405191795     0.1941720251
 F      1.1768664868     5.6456923586    -0.7139997831
 H      3.2632843420     2.8787182057    -0.2540323703
 F      3.2103269415     2.1727083648     0.3287494227
 H      6.8412772828     5.3481864509     4.9878929435
 F      7.6504943636     5.3524926484     4.5565715172
 H      3.8790592691     2.2390191226     1.8515365870
 F      4.1739504519     2.3532803919     2.7122761253
 H      4.0792004625     7.0616437837     2.5133819993
 F      3.2128628616     7.3544504316     2.4454671399
 H      2.5036822514     4.7641527627    -1.1158504478
 F      3.2597989236     4.2503505820    -1.1878497342
 H      6.8357686581     7.9245852985    -0.0997679197
 F      6.9646767206     8.0646798747     0.7972522702
 H      6.1908353879     7.1689156591     1.9419719568
 F      5.6953006082     6.6255977887     2.4898222774
 H      4.6539898658     5.0146099512     4.9717474791
 F      5.3117370495     5.2010464496     5.5828931854
 H      6.1086382573     4.5285827453    -0.9166946522
 F      6.4518152341     4.8685749545    -1.6961328218
 H      6.3464431262     4.1587736520     1.2360373253
 F      5.6549159378     4.1278052580     0.6346056116
 H      1.9069624447     6.3395355227     2.1522580296
 F      1.2255839465     5.8148341222     1.8339801910
 H      7.6937798043     4.6866440478     3.0483827268
 F      7.6638492563     4.2798099030     2.2271159365
 H      3.7897092529     3.7987905552     3.3665762703
 F      3.6508533219     4.6366448956     3.7124203605
