          30
Energy: -122.24369461834111 Kcal/mole
 H      1.3507263957     4.8393946657     2.2477875885
 F      0.8496905262     5.3867862417     1.7090719678
 H      2.1956846981     2.6128177239     0.0269690321
 F      1.8616412247     3.4004667678    -0.3030505758
 H     -1.5727751289     3.6800281391     0.9955178690
 F     -1.9716881309     3.7484076106     1.8183675908
 H      4.0329074351     1.3970310852     3.3835506048
 F      4.4353167955     1.5079339418     2.5670603948
 H     -1.0370601905     3.7978296136     3.1783185003
 F     -0.4516714515     3.7353722068     3.8813889780
 H      4.5845658474     3.9669712236    -0.4675143477
 F      4.8404812067     3.2850371722     0.0895873291
 H      0.2058719504     3.4396638210    -0.4399048569
 F     -0.7108601945     3.4491979720    -0.4198979977
 H      1.6447557648     6.1709362920     0.4785341195
 F      2.1535327059     6.5435695217    -0.1871831632
 H      3.4110639713     5.7739014661    -0.9702367035
 F      4.1405301530     5.3230883773    -1.2950992110
 H      2.2217828550     1.3426326247     4.7081921383
 F      3.1355547912     1.2970841099     4.7701209795
 H      3.2216674438     4.0212199542     3.3421767078
 F      2.4286070375     3.7573771557     2.9649086735
 H      5.3914180094     4.3139586073     3.2650034513
 F      4.7094125637     4.4770878644     3.8558895803
 H      3.3301885559     1.2951939881     1.3441775787
 F      2.6288564541     1.2119656339     0.7592884233
 H      5.9370020287     3.6924738288     1.2754955519
 F      6.3976371156     4.0373135177     1.9894912842
 H      0.2021042725     2.2698495534     4.3052907721
 F      0.5917228427     1.4584769867     4.4806787073
