          30
Energy: -122.2702666702752 Kcal/mole
 H      1.3491128558     4.8414183043     2.2315820797
 F      0.8419675183     5.3862215488     1.6959683836
 H      2.1983112322     2.5919058968     0.0464816936
 F      1.8658333309     3.3781631094    -0.2884019292
 H     -1.5895036975     3.7071845438     1.0060504127
 F     -1.9972146470     3.7879215954     1.8234501375
 H      4.0635113364     1.3920739056     3.3796164639
 F      4.4639918645     1.5087533288     2.5629829728
 H     -1.0360199835     3.7978701721     3.1680337682
 F     -0.4356360813     3.7123351893     3.8558650969
 H      4.5927982280     3.9303192402    -0.4755058214
 F      4.8539551926     3.2484292679     0.0792122200
 H      0.2062914343     3.4315079572    -0.4110850646
 F     -0.7102598883     3.4496359717    -0.3888578733
 H      1.6511347505     6.1642019789     0.4668145613
 F      2.1695463264     6.5286510841    -0.1959940745
 H      3.4188858274     5.7388106332    -0.9760117098
 F      4.1438991249     5.2813687423    -1.3015752747
 H      2.2472840760     1.3154471629     4.6502197881
 F      3.1583473339     1.2796880802     4.7480667507
 H      3.2413971790     4.0139795254     3.3184094823
 F      2.4489887908     3.7612135998     2.9322911933
 H      5.4073495336     4.2671340313     3.2652321049
 F      4.7252138778     4.4384508215     3.8536456537
 H      3.3455185328     1.2859210414     1.3574351972
 F      2.6336023623     1.1960593369     0.7864805228
 H      5.9593335568     3.6437437396     1.2767482993
 F      6.4188190645     3.9841597085     1.9936018661
 H      0.2283989404     2.2334226387     4.2108521782
 F      0.6260012267     1.4185940259     4.3481684324
