          30
Energy: -122.23741049638949 Kcal/mole
 H      1.2389833472     4.8360509187     2.1662115899
 F      0.7060055520     5.3474567540     1.6228077425
 H      2.2119185809     2.5941667437     0.0367890084
 F      1.8573829407     3.3601297542    -0.3216717934
 H     -1.6075501518     3.5836594282     0.9029747710
 F     -2.0144763067     3.6063846156     1.7244269426
 H      4.1386075209     1.5315494009     3.3944846027
 F      4.5250524496     1.6319651676     2.5689750686
 H     -1.0433260151     3.6750109055     3.0682897530
 F     -0.4367180861     3.6263720596     3.7542562851
 H      4.5548082502     4.0389312318    -0.4443858646
 F      4.8330421138     3.3561333858     0.1008315403
 H      0.2019075295     3.4039726038    -0.4999266126
 F     -0.7147446280     3.4289158107    -0.5038837004
 H      1.4808505863     6.1526325308     0.3908550803
 F      1.9852536459     6.5321198962    -0.2743185007
 H      3.3192049543     5.8181774308    -0.9659346532
 F      4.0861601090     5.4017253464    -1.2474243548
 H      2.3415654880     1.4152128691     4.6906612447
 F      3.2533065274     1.4420548052     4.7849840288
 H      3.2037949641     4.1284588065     3.2401032854
 F      2.4235407995     3.8255371247     2.8654956328
 H      5.3711973982     4.4713297422     3.1974110040
 F      4.6686665200     4.6485507884     3.7594893491
 H      3.4045805669     1.3534655756     1.3785442113
 F      2.6940573891     1.2263552347     0.8129571047
 H      5.9550309448     3.7835442858     1.2673648914
 F      6.4161589236     4.1492255285     1.9705911820
 H      0.2808416978     2.1908707884     4.1895065076
 F      0.7162462096     1.4061034514     4.3777938887
