          30
Energy: -122.22492522455339 Kcal/mole
 H      2.2545344581     4.5892649749     2.2397689337
 F      1.6572780491     5.0349068609     1.7053747989
 H      2.7223908185     1.9808209095     0.3274498758
 F      2.3195111678     2.7057742886    -0.0637273029
 H     -0.8525484469     3.3509489495     1.7497379115
 F     -1.1083833569     3.5784429988     2.6004340713
 H      5.1292902058     1.2858756310     3.4567196679
 F      5.3936047438     1.2661098575     2.5788608300
 H      0.0783720168     3.7857132789     3.7312766205
 F      0.7909613020     3.8036506219     4.3081507509
 H      4.9774783818     3.2192132765    -0.7576441600
 F      5.3093493644     2.6104973136    -0.1574645806
 H      0.6567612862     2.7890029009     0.1075596828
 F     -0.2409465460     2.8393290043     0.2877732541
 H      2.2064030903     5.6195044301     0.2334851896
 F      2.5819993019     5.8732612000    -0.5636496720
 H      3.7493739404     4.9773733634    -1.3614888471
 F      4.4380961050     4.4716178525    -1.6942983170
 H      3.5574205858     1.4741662270     5.0462377735
 F      4.4676204729     1.4032365116     4.9602485822
 H      4.3390753903     3.9048203454     3.1239423626
 F      3.4856537511     3.6252357252     2.9384890100
 H      6.4738299304     4.0496612470     2.6443459705
 F      5.9074177888     4.3514192448     3.2993332961
 H      4.0985434684     0.8801615851     1.6219491812
 F      3.3037226773     0.7130320248     1.1962537264
 H      6.6394921462     3.1015776211     0.7361976111
 F      7.2396602171     3.5111471300     1.2956081080
 H      1.4946446376     2.4020150824     4.8487408661
 F      1.9063977527     1.6173122909     5.0845159733
