          30
Energy: -122.2471245324126 Kcal/mole
 H      1.2683968839     4.4919392668     2.0986509651
 F      0.6837324996     4.9182897513     1.5353732166
 H      2.3893255852     2.1945970834     0.1019195424
 F      1.9447831223     2.9009918159    -0.2779192135
 H     -1.4968436961     2.8984358500     1.0465978126
 F     -1.8959405478     3.0085148011     1.8648235318
 H      4.4581437493     1.5519790525     3.4606836859
 F      4.8300228925     1.6296857048     2.6260840340
 H     -0.9277390402     3.2526966386     3.1831114394
 F     -0.3137846737     3.3060410563     3.8621573943
 H      4.5931226173     3.7372500289    -0.5970255477
 F      4.9506448591     3.1498462580     0.0096239859
 H      0.2949161556     2.7118136964    -0.3837814824
 F     -0.6155063380     2.6085416467    -0.3469743238
 H      1.3969383124     5.6724410397     0.2270249691
 F      1.8711486578     6.0351619008    -0.4689973906
 H      3.1853746393     5.3330132353    -1.2175184115
 F      3.9532512096     4.9390864548    -1.5274801261
 H      2.6942626338     1.3956193032     4.8178237788
 F      3.6055960728     1.4825166528     4.8708257926
 H      3.2892942082     4.0395991701     3.1690014110
 F      2.5328995866     3.6344182979     2.8456059299
 H      5.4035183915     4.6063710995     3.0123960370
 F      4.7059749058     4.7464359510     3.5909320540
 H      3.7402333780     1.1579378391     1.4637213403
 F      3.0391265595     0.9266587869     0.9198020181
 H      6.0169485986     3.8235058936     1.1062772207
 F      6.4393314925     4.3089713958     1.7595803182
 H      0.5463165236     1.9895609038     4.3728005084
 F      1.0567593301     1.2621710184     4.5991654702
