          30
Energy: -122.2630874771297 Kcal/mole
 H      1.3372754328     4.8338407728     2.2306842949
 F      0.8304432679     5.3750871457     1.6911821907
 H      2.1846639432     2.5973883242     0.0407080650
 F      1.8485552943     3.3800412596    -0.2989599479
 H     -1.6013903611     3.7412372611     0.9888361567
 F     -2.0063834687     3.8332626284     1.8063940535
 H      4.0696127700     1.3947167613     3.3691621144
 F      4.4722571719     1.5304724322     2.5565509630
 H     -1.0502712062     3.8127072015     3.1518251142
 F     -0.4546441849     3.7121925553     3.8417629790
 H      4.5860358655     3.9320531826    -0.4745523546
 F      4.8521403848     3.2439266802     0.0700202314
 H      0.1857943968     3.4373503372    -0.4312380202
 F     -0.7306984360     3.4602967098    -0.4111544131
 H      1.6401944962     6.1736141818     0.4788578880
 F      2.1612271600     6.5491012480    -0.1756827345
 H      3.4070599234     5.7591945983    -0.9488108799
 F      4.1305748960     5.2994810118    -1.2745078291
 H      2.2447814404     1.2946685315     4.6149991095
 F      3.1536942392     1.2444271377     4.7256441565
 H      3.2327798968     4.0140010338     3.3208871606
 F      2.4379615706     3.7579338024     2.9419644756
 H      5.4000400173     4.2847636569     3.2507793108
 F      4.7198861155     4.4495271177     3.8433437982
 H      3.3532029866     1.3072363711     1.3566199320
 F      2.6376715561     1.2123517145     0.7910223066
 H      5.9491273727     3.6596231336     1.2583322804
 F      6.4069839043     4.0133774863     1.9697493553
 H      0.2222940682     2.2350147832     4.1662920709
 F      0.6254700778     1.4202970356     4.2870111539
