          3
Energy: -0.2562265256505866 Kcal/mole
 Ar     6.3905333961    -5.4301616750    -4.6379006117
 Ar     1.6723745937    -1.1215835907    -5.0188195549
 Ar    -0.7314718183    -0.3792545178    -2.1972076316
          3
Energy: -0.10766901482700936 Kcal/mole
 Ar     1.8122463651     3.0481195507    -6.7267922637
 Ar    -2.4878160824     5.4411513336    -6.2483797894
 Ar     0.7038923025     1.1398529170    -0.2388770715
          3
Energy: -0.003636090323332607 Kcal/mole
 Ar     4.4174287708     6.5431031470    -5.4166190288
 Ar    -0.9380405550    -0.5410858333    -2.4976600962
 Ar     6.8631654279    -6.6812719083    -5.1551838121
          3
Energy: -0.17945156104441862 Kcal/mole
 Ar    -0.6175099148    -6.4945827742    -1.8939577258
 Ar    -5.3037928153    -3.2290432233     6.7240370950
 Ar    -2.4668417785    -6.1908123950    -5.7300301830
          3
Energy: -0.014131543873545722 Kcal/mole
 Ar    -1.7866231259    -5.4830285301     6.7165652365
 Ar    -1.3082567787    -0.3208775385    -5.9544015196
 Ar    -5.7212480244    -0.5245833777    -0.5161702605
          3
Energy: -0.6169469271781383 Kcal/mole
 Ar     3.4024323312    -0.5506737554     6.8909504918
 Ar     4.7502403810    -3.2839574585     4.5430351181
 Ar     6.1036876425    -0.0234415102     3.5249902489
          3
Energy: -0.21129109966714635 Kcal/mole
 Ar    -1.9739931233     3.1375259961    -1.2439864535
 Ar    -0.7428276825     4.1652325022     2.5939265542
 Ar     3.3198567498    -1.6265773311     3.2067770365
          3
Energy: -0.5948010563981014 Kcal/mole
 Ar    -3.3634974682     6.5714372096     0.7354983840
 Ar    -1.9383122877     3.7417003044     3.1151159478
 Ar    -5.7238099610     3.6635460435     3.2926490516
          3
Energy: -0.6526263369641773 Kcal/mole
 Ar     1.5355370239    -1.5549940160     3.0877237530
 Ar     0.1254741147     1.1349880044     0.9101487079
 Ar    -0.3023905260    -2.6586251893     0.1979768050
          3
Energy: -0.7016995979907237 Kcal/mole
 Ar     1.3017775399    -1.5195402052     3.4310825399
 Ar    -0.5345902577     1.0057790054     1.2340066161
 Ar    -0.1322172377    -2.6051973963     0.0643649287
