          3
Energy: -0.4319159240099945 Kcal/mole
 Ar    -5.4727364756     7.0254861413    -0.3803037557
 Ar    -6.5493095546     2.8609296291     0.3897715435
 Ar    -2.4714546201     5.6083316448    -2.4590807013
          3
Energy: -0.013337066330260203 Kcal/mole
 Ar     7.2581034079     2.2842072230    -6.8801731048
 Ar     5.6987983490    -4.4712890643    -6.3499483300
 Ar    -5.3107244004     1.9279997880    -6.1873605450
          3
Energy: -0.1349497097015674 Kcal/mole
 Ar    -0.5381711066    -6.3862336472    -2.8582293876
 Ar    -0.6630186564     5.4817044808     3.2341332134
 Ar    -2.9940413209    -6.2237049517    -6.6861730032
          3
Energy: -0.28856635102755923 Kcal/mole
 Ar     1.1908142270     0.4913572460    -4.3162574843
 Ar     4.8314789181     0.3436023128     0.0056197539
 Ar    -1.3249590038     2.5770392922    -2.3683706245
          3
Energy: -0.001507792454168364 Kcal/mole
 Ar     4.4494827645     6.0928460784    -6.4389089072
 Ar    -7.2552862360    -4.0260873596     6.9799527794
 Ar     2.5922300467    -5.6620552911     6.2146636210
          3
Energy: -0.5279695554102146 Kcal/mole
 Ar    -4.3182017228    -0.4475878119     0.5845312481
 Ar    -3.1636721683    -0.4902553103     4.5838200563
 Ar    -1.8932620049    -3.6131910538     3.1083120789
          3
Energy: -0.6451739857281652 Kcal/mole
 Ar    -0.5572937872     0.0554288053     4.8981641954
 Ar    -3.7838907860    -0.0835076116     6.4656750225
 Ar    -1.9627638881    -3.4329768190     6.1615328231
          3
Energy: -0.48024940563228297 Kcal/mole
 Ar    -3.4219050378    -0.5244472178    -4.2615021154
 Ar     0.4993399409    -2.6841934358    -2.5632498946
 Ar    -2.6531019602    -2.9900177802    -0.7082764240
          3
Energy: -0.6664146537814578 Kcal/mole
 Ar    -6.6160420492    -7.0407075524    -2.1945394236
 Ar    -4.4459492590    -4.7130889291    -0.4605948500
 Ar    -2.9497016011    -7.2395360770    -2.9116055215
          3
Energy: -0.7016990949852392 Kcal/mole
 Ar    -6.6668869186    -6.8393755243    -2.5417797648
 Ar    -4.4353882751    -4.2267156211    -0.8787833633
 Ar    -2.8710449568    -7.1155913681    -2.8233275374
