          5
Energy: -2.5625242569264373 Kcal/mole
 Xe    -1.9039608715    -1.7309089171    -0.8211152698
 Xe    -4.4095497928     1.7569424226     1.5433962927
 Xe     2.4200091440     1.9443448982    -2.5555011128
 Xe    -0.0953910969     2.5100641007     1.0958806083
 Xe    -2.7015861802     5.8802664756     2.5482987337
          5
Energy: -2.9903772273938563 Kcal/mole
 Xe     0.9667174133    -0.6261494177     0.9315038646
 Xe    -1.2805473500     2.4281357630    -0.9716876414
 Xe     2.7926742630     3.6640130277     1.9480834021
 Xe     2.2194284986     1.1302186096    -3.1128011945
 Xe     5.2188801327     0.2106229623     2.4588091263
          5
Energy: -3.3128025434659176 Kcal/mole
 Xe    -2.7875836417    -3.8318629331     1.3123482795
 Xe     0.0450311528    -4.2985791834    -2.4496888495
 Xe    -1.6468701637     0.0214835560    -1.1174139390
 Xe    -5.5906063106     0.1803477074     0.5673680074
 Xe    -4.8624950131    -3.3896337774    -2.2159154059
          5
Energy: -2.5266611789764193 Kcal/mole
 Xe    -6.4372482231    -4.1630290105    -0.3305177414
 Xe    -0.9127269259    -5.5477814153     6.3447460187
 Xe    -4.2437914432    -7.8096980434     1.5744700428
 Xe    -7.7995094824    -1.0872935475     2.8879738838
 Xe    -3.4577634557    -3.5838620870     3.0676564564
          5
Energy: -3.7275104074427765 Kcal/mole
 Xe    -2.9972169645    -3.4558370136     6.4559493002
 Xe    -1.1358582019    -7.3688146734     7.3596532890
 Xe    -7.2975827476    -4.3950808140     5.1371555978
 Xe    -5.5452149645    -6.4494254401     8.3421130777
 Xe    -3.8460912219    -6.7152996139     3.7785220556
          5
Energy: -3.339066554533771 Kcal/mole
 Xe    -2.2345912004    -5.2008645735     1.0644132839
 Xe     0.2728759700    -3.0764895457     4.1614573332
 Xe    -4.1766699846    -7.1617096453     4.7611918710
 Xe    -4.2541011370    -2.3528114349     3.9496752778
 Xe     0.7554183847    -7.4381587910     3.6974119963
          5
Energy: -3.7267535489292465 Kcal/mole
 Xe    -4.1658632968    -3.4164559837     6.1229926358
 Xe     2.0476278569    -7.6337256765     5.6681970270
 Xe    -1.9274472986    -7.0627545091     8.0462924334
 Xe     0.3384757774    -3.6845645062     6.2282792815
 Xe    -1.6991936463    -6.1170308082     3.4347376787
          5
Energy: -3.772599903401053 Kcal/mole
 Xe    -4.2046982948    -4.2084394578     7.9695439834
 Xe    -7.3594339305    -3.9331622931     1.6876023172
 Xe    -3.6260240593    -4.8815395459     3.9084387655
 Xe    -6.0538625808    -1.3650183928     5.3079169741
 Xe    -7.5017069787    -5.7400967744     5.7363501331
          5
Energy: -3.8352936047711284 Kcal/mole
 Xe    -7.3016890785     0.9871851128     5.7666943707
 Xe    -5.1943661383    -5.9602961810     3.9285039683
 Xe    -4.7266683957    -2.7440255508     6.8840321663
 Xe    -5.2910266924    -1.7008520167     2.5730042268
 Xe    -8.6923749000    -3.1973475573     5.1115879517
          5
Energy: -3.941527767314425 Kcal/mole
 Xe    -7.1298289166     0.8777895734     5.8151726531
 Xe    -5.4782132504    -5.8888035289     4.0512161193
 Xe    -4.5852503673    -2.5841687637     6.8188963658
 Xe    -5.6419270829    -1.7384779765     2.5995906054
 Xe    -8.7254142931    -3.2224328836     5.3823134922
