          5
Energy: -3.941563425068398 Kcal/mole
 Xe    -3.0017753946    -3.3808654804     5.7020785433
 Xe    -5.0395989269    -0.6214425443     2.8986780362
 Xe    -2.0343826935    -3.4916378005     1.4146042040
 Xe    -0.7462945764    -0.0467894842     3.8566071580
 Xe    -3.8311994019     0.7712496070     6.8983384878
