          5
Energy: -3.941527767314425 Kcal/mole
 Xe    -7.1298289166     0.8777895734     5.8151726531
 Xe    -5.4782132504    -5.8888035289     4.0512161193
 Xe    -4.5852503673    -2.5841687637     6.8188963658
 Xe    -5.6419270829    -1.7384779765     2.5995906054
 Xe    -8.7254142931    -3.2224328836     5.3823134922
