          6
Energy: -16.87676266537892 Kcal/mole
 H      3.6260891877     2.2958867526    -6.8306581376
 F      4.1582398889     1.5702169236    -6.6542837333
 H      3.4069284386     1.4047913005    -5.0910823610
 F      2.7996186593     1.6892357619    -4.4656583606
 H      2.2991242952     2.9705396051    -5.5436881084
 F      2.3755213610     3.4098386850    -6.3449800694
