          6
Energy: -16.64452735637775 Kcal/mole
 H      2.1563413182     1.9058157666     1.9590405085
 F      2.9484716854     1.6652974389     1.5646176196
 H      3.7437515634     2.1516808915     2.9714300394
 F      3.7504746809     2.4208644198     3.8480052089
 H      1.9644148502     2.7038995234     3.7910833006
 F      1.2032613340     2.6057202967     3.2891917145
          6
Energy: -16.706537667668783 Kcal/mole
 H      2.2335531793     2.1596467023     2.1205691230
 F      2.9565265450     1.9634513787     1.5916968251
 H      3.4911232771     3.6996869267     1.6910998037
 F      3.3092849765     4.5180834275     2.0626519534
 H      1.8477625035     3.9169920354     2.8762401878
 F      1.2817998765     3.2109642149     3.0249009475
          6
Energy: -16.7303767853723 Kcal/mole
 H      1.8254743099     1.3793235645     2.5293697003
 F      2.4777557624     0.9285713778     2.0686741686
 H      2.5070080925     2.2219761012     0.8465757163
 F      2.1500087359     3.0056892166     0.5315610942
 H      1.1277967296     3.1156702291     1.9295380236
 F      0.7418202848     2.7261679839     2.6645204621
          6
Energy: -16.547488573836404 Kcal/mole
 H      1.4550485230     1.6496550973     4.0946184440
 F      1.2260892378     0.8315812305     3.7493333529
 H      1.6911389982     1.5762849583     2.1417330587
 F      2.0585161052     2.2889350743     1.6967017413
 H      2.2295185778     3.1044806947     3.1669181928
 F      2.0991828609     3.2070481762     4.0687948543
          6
Energy: -16.739754118994426 Kcal/mole
 H      1.7704562595     0.7995855772     3.7036817352
 F      1.4625385586     0.4097493987     2.9329006746
 H      2.2336248695     1.6649527293     1.9054516848
 F      2.7960138259     2.3882451170     1.8672969531
 H      2.9481132948     2.4346693557     3.5969431220
 F      2.7976283732     2.0795292369     4.4288798890
          6
Energy: -16.754070122576877 Kcal/mole
 H      0.1508297770     1.0226067050     3.7932832608
 F      0.2774712992     0.4088837530     3.1238095398
 H      1.1372242248     1.5880989081     2.2160427205
 F      1.4123019909     2.4561626480     2.1079382980
 H      0.8055769765     2.8760023607     3.6350223520
 F      0.3609131351     2.6543353113     4.4057536848
          6
Energy: -16.437954711571024 Kcal/mole
 H     -1.0604795070     2.5499685368     3.7008248828
 F     -1.7722599982     2.4478908951     3.1317574989
 H     -0.5119201017     1.9345552005     1.8258660339
 F      0.3736067125     1.7281317166     1.7070358753
 H      0.8318620706     2.1194334606     3.2772441985
 F      0.6274603152     2.3537114045     4.1399276673
          6
Energy: -16.735233381334467 Kcal/mole
 H     -1.1801201750     2.8237300913     3.0396960571
 F     -0.6299563347     3.5312796430     2.8458342999
 H      0.5788492235     2.4015997718     2.1339378444
 F      0.7592149329     1.5277318258     1.9224856656
 H     -0.6827450615     1.0043437380     2.7176436140
 F     -1.4720350546     1.1289694132     3.1675088692
          6
Energy: -16.689438775481904 Kcal/mole
 H     -1.2935291809     2.7476826523     2.3765923348
 F     -1.0429947733     3.6152687281     2.5360160210
 H      0.4634352475     3.3134712298     1.7033779862
 F      1.0410525053     2.7190900335     1.3110027870
 H     -0.1946893032     1.4578433473     1.5129920212
 F     -1.0061687435     1.1447389313     1.8034326219
          6
Energy: -16.66142493317045 Kcal/mole
 H     -1.3989977909     2.0191868018     2.1891725507
 F     -1.5063803979     2.8039205463     2.6512882569
 H     -0.8430152344     3.8025449997     1.3100250113
 F     -0.5083445870     3.7949587258     0.4563113554
 H     -0.4883768186     2.0324325643     0.3961468868
 F     -0.6957155566     1.2029806809     0.7276724828
          6
Energy: -16.772111948358088 Kcal/mole
 H     -1.7783928475     2.4478451631     1.7446018845
 F     -2.2726009799     3.2202746323     1.7444098205
 H     -0.7786187588     4.1598542555     1.8776586768
 F      0.1281036015     4.1755896177     2.0136585284
 H      0.1479403709     2.4003726188     1.9907656803
 F     -0.2676225330     1.5898864890     1.8844232796
          6
Energy: -16.686297067239764 Kcal/mole
 H     -0.9346930806     3.9250633480     2.3813198262
 F     -1.6590862971     3.7222717002     1.8568972718
 H     -0.4836936160     2.8899847486     0.7491121135
 F      0.3894571003     2.6772654623     0.5667736045
 H      0.9465694426     3.4134282869     2.0689574285
 F      0.7256201608     3.8194105539     2.8609478411
          6
Energy: -16.645699279333144 Kcal/mole
 H     -0.8637198624     3.6435551494     2.3626023329
 F     -1.3802150941     3.7270302921     1.6095063389
 H      0.0425832689     4.1580452577     0.6663501236
 F      0.9574593216     4.2060121289     0.6264754758
 H      1.0053428441     3.7983467250     2.3219810571
 F      0.6404210906     3.6400278661     3.1482112022
          6
Energy: -16.732473085351614 Kcal/mole
 H     -1.4850879986     3.8802772111     1.2446840217
 F     -1.5262841068     3.8385028919     0.3295628347
 H     -0.2117158982     4.9344400284     0.1712996688
 F      0.4481695768     5.4929590877     0.4770718394
 H     -0.0825830571     5.0025042712     2.1440750694
 F     -0.6466463083     4.5084738035     2.6719534131
          6
Energy: -16.72927553943623 Kcal/mole
 H     -2.3514505559     4.8017430144     1.7685148570
 F     -2.7673687993     5.6189268249     1.7579491226
 H     -1.5188911296     6.1389074107     0.6884173460
 F     -0.7510034810     5.9669256101     0.2176097214
 H     -0.7959655710     4.3269727360     0.7661341785
 F     -1.1324470417     3.6712537326     1.3117547504
          6
Energy: -16.762245039261813 Kcal/mole
 H     -3.5193913126     5.5427091862     0.4953518451
 F     -3.8085101343     6.4057812323     0.3839698440
 H     -2.1928681151     7.0126807976     0.5052040198
 F     -1.3104043009     6.8292530138     0.6740260110
 H     -1.6377637356     5.1107611342     0.8465699770
 F     -2.2408669038     4.4208731637     0.8117826731
          6
Energy: -16.697942107638255 Kcal/mole
 H     -2.9561804139     5.3220482591     1.0162893322
 F     -3.2593673433     6.1495167088     0.7627885421
 H     -1.6649878734     6.5711272639     0.2144737393
 F     -0.7885609531     6.3463598782     0.0653279192
 H     -1.1328221774     4.7104557164     0.6834947473
 F     -1.6793880164     4.1508789030     1.1620640458
          6
Energy: -16.79350934813516 Kcal/mole
 H     -2.7335968419     5.2970599190     0.3837384457
 F     -3.0442744637     6.1538692432     0.2825149438
 H     -1.4395018523     6.6424286587    -0.2937049299
 F     -0.5822871827     6.3874435182    -0.4963242488
 H     -0.8659186147     4.7551247630     0.0534489007
 F     -1.4316591379     4.1313404059     0.4163810379
          6
Energy: -16.84333240840408 Kcal/mole
 H     -1.8374326497     4.5063532641    -0.4328114168
 F     -2.5303850772     4.9905698438    -0.0775083950
 H     -1.5170426942     6.3734993932    -0.1171750176
 F     -0.7221930111     6.7908354164    -0.3040804081
 H     -0.0669099254     5.2652173643    -0.8863605635
 F     -0.2089723515     4.3718851382    -1.0369088979
          6
Energy: -16.704918060893988 Kcal/mole
 H     -2.3740159761     5.0223868537    -0.5634530811
 F     -2.6219627801     5.2777294952     0.2816572773
 H     -0.8471688387     5.5371886603     0.6580031546
 F     -3.899408E-40     5.5141556519     0.3068280152
 H     -0.5492248507     5.0122030959    -1.2696272108
 F     -1.2280614718     4.8300477869    -1.8586002877
          6
Energy: -16.71068855802821 Kcal/mole
 H     -1.9278176105     5.9855376248    -1.3832818691
 F     -2.0226194264     6.6113578402    -0.7197679855
 H     -0.3002760072     6.7731881259    -0.6523725678
 F      0.5552523694     6.5850052641    -0.9235688204
 H     -0.1380939513     5.3067054172    -2.0662387585
 F     -0.9124348176     4.9267830874    -2.3775974682
          6
Energy: -16.748100392812603 Kcal/mole
 H     -1.0753229175     6.9884304215    -1.3835458418
 F     -1.7344906456     7.2831340067    -0.8182700657
 H     -1.3072991319     5.9589770849     0.3143895494
 F     -0.7201916755     5.2784812265     0.4963764213
 H      0.0803312976     5.5206596820    -0.9815529683
 F      0.2542705854     5.9469230788    -1.7746063339
          6
Energy: -16.674422539418288 Kcal/mole
 H     -1.1495383609     6.8293319096    -2.3189697737
 F     -0.8705297810     7.4894285665    -1.7468547364
 H     -1.3305781936     6.5063635437    -0.4600194108
 F     -1.7111190194     5.7849076507    -0.0409978428
 H     -2.0065301431     5.1016020906    -1.6631828333
 F     -1.9186602582     5.2742088765    -2.5594945987
          6
Energy: -16.78053349258323 Kcal/mole
 H     -1.2912089136     6.0787987760    -2.5406114351
 F     -0.4288325594     5.7671254770    -2.5331429358
 H     -0.8580225451     4.4121903872    -1.5397733900
 F     -1.4973133478     3.9331102759    -1.0895750820
 H     -2.7086006596     5.1720009291    -1.5232493470
 F     -2.9186192788     5.9585325877    -1.9453265076
          6
Energy: -16.774001148504965 Kcal/mole
 H     -1.2270373033     6.0350163131    -1.6287667422
 F     -0.8628367999     5.4047800933    -2.1864846823
 H     -2.0853783816     4.2879926267    -1.6590065521
 F     -2.8122284128     4.0415228246    -1.1571792225
 H     -2.9114796760     5.7055852297    -0.5746055243
 F     -2.5445101075     6.5455541300    -0.5486328027
          6
Energy: -16.773669479848365 Kcal/mole
 H     -1.1654628096     5.6987054708    -1.6026337363
 F     -0.7028963252     4.9069621226    -1.6106160966
 H     -1.5550608833     4.4206770361    -0.1442379772
 F     -2.1916547589     4.6188847979     0.4853260948
 H     -2.4498011509     6.2353742632    -0.2196942658
 F     -2.2871040012     6.8499522707    -0.8805365391
          6
Energy: -16.825394842103947 Kcal/mole
 H     -0.3526427909     5.6752611503    -1.3509975464
 F     -0.2840146015     4.7741572366    -1.5065318141
 H     -1.7089762320     4.5117438354    -0.5283973319
 F     -2.3828750461     4.8603105588    -0.0133724513
 H     -1.7547442087     6.4554220857    -0.1924055986
 F     -1.1555880973     7.0469959206    -0.5556429206
          6
Energy: -16.760593885270794 Kcal/mole
 H     -0.1376479037     5.6762998449    -0.3817532143
 F     -0.2546881631     4.7745081030    -0.4999151026
 H     -1.9616213768     4.9494878710    -0.2755513522
 F     -2.6734343272     5.5004861288    -0.1005878030
 H     -1.6685597302     6.8568981685    -0.0868064739
 F     -0.8564362733     7.2749371973    -0.1679721149
          6
Energy: -16.789677788965264 Kcal/mole
 H     -0.5924755306     5.3983629066     0.0454755371
 F     -0.7858583261     4.5348163261    -0.1948979175
 H     -2.3797928353     4.9951163691    -0.4785273489
 F     -3.0860292166     5.5794726286    -0.5039622778
 H     -1.9730775830     6.8268862715     0.0995501829
 F     -1.1138620426     7.0279729298     0.3489530918
          6
Energy: -16.694597041946224 Kcal/mole
 H     -0.4228150276     5.8037065015    -1.3502443970
 F     -0.7358524039     5.5802807740    -2.1826971256
 H     -2.3743336632     5.7920543237    -1.5969179047
 F     -3.0129206161     6.0035610543    -0.9737320524
 H     -1.6565125635     6.3728327219     0.1050854899
 F     -0.7499084359     6.4108159970     0.2374305940
          6
Energy: -16.81060411923579 Kcal/mole
 H     -0.8638707806     5.6129420088    -1.9095406616
 F     -1.2784036499     5.4396900889    -2.7089374796
 H     -2.7390761652     4.9711187558    -1.8974179722
 F     -3.2034807846     4.8406703285    -1.1175458306
 H     -1.8386770837     5.4378790465    -0.1755781877
 F     -0.9815063775     5.7635612805    -0.1667202547
          6
Energy: -16.82438181125201 Kcal/mole
 H     -1.2284871783     4.2855653693    -1.3649105294
 F     -1.8451810975     4.2455004711    -2.0423855577
 H     -2.7254284395     5.5719876677    -1.3513663268
 F     -2.8198370620     6.1858593422    -0.6767274758
 H     -1.3906934908     5.5612949401     0.1115500683
 F     -0.6523655864     5.0174682849     0.1078792812
          6
Energy: -16.759355842544153 Kcal/mole
 H     -0.9696732119     4.2190493447    -1.3771315351
 F     -1.5365395167     3.7848211640    -1.9524553392
 H     -2.5703198037     5.1128141070    -1.8961822573
 F     -2.8526718814     5.9359576399    -1.6070438327
 H     -1.3287111447     6.0797518344    -0.7452672042
 F     -0.5367332565     5.6836216935    -0.5070636441
          6
Energy: -16.805853360736364 Kcal/mole
 H     -1.2457410096     4.2877950581    -2.0240452686
 F     -1.9180368648     3.7025313113    -2.2393906416
 H     -3.1051493340     4.8856313066    -1.7092992126
 F     -3.2819696395     5.7351248650    -1.4126777808
 H     -1.5619205245     6.0885825851    -1.4030963755
 F     -0.6863910086     5.8505040421    -1.5359710312
          6
Energy: -16.826990019584287 Kcal/mole
 H     -1.0528599490     4.7965757738    -2.5405125027
 F     -1.7526832708     4.3652054940    -2.9467833482
 H     -2.8405282211     5.2262003743    -1.8849899313
 F     -2.9745947720     5.8548768662    -1.2310166685
 H     -1.2733012935     6.1188707437    -1.1354008606
 F     -0.4096709636     5.9554225285    -1.3967747960
          6
Energy: -16.830266582700858 Kcal/mole
 H     -1.2140753767     4.2992912088    -2.4072908552
 F     -1.9727313925     3.7874826291    -2.4654460567
 H     -2.8956516483     4.9655673444    -1.6151348265
 F     -2.9719250250     5.7513429984    -1.1486286706
 H     -1.2665121407     6.0286105608    -1.4415658368
 F     -0.4617054739     5.7637430972    -1.7923085571
          6
Energy: -16.83461623009066 Kcal/mole
 H     -1.1615638661     4.4715927751    -2.3528538869
 F     -1.7176739411     4.5378800387    -3.0789644729
 H     -2.7029008251     5.7215204043    -2.1979021274
 F     -2.8333691078     6.1953313796    -1.4237121074
 H     -1.3697555767     5.5167120299    -0.7108181109
 F     -0.6379880823     4.9669885278    -0.7674697237
          6
Energy: -16.825919393041147 Kcal/mole
 H     -0.4258371810     5.6384248451    -2.8065105754
 F     -1.0186782907     5.6315443909    -3.5060683487
 H     -2.2576748931     6.2541637300    -2.4525226277
 F     -2.5277864075     6.5177172463    -1.6167784600
 H     -0.9777626586     6.1806635959    -0.9998861914
 F     -0.1077024524     5.9152386163    -1.1157905390
          6
Energy: -16.808722116773765 Kcal/mole
 H     -0.2314749640     5.6273289232    -2.6955634754
 F     -0.9325174762     5.3273195620    -3.2048991007
 H     -1.9134268033     6.6830565523    -2.6309220244
 F     -2.0267349970     7.4290625627    -2.1098411422
 H     -0.3780842372     7.2259341603    -1.4757748164
 F      0.3982030964     6.7378172187    -1.4787458423
          6
Energy: -16.841630915528356 Kcal/mole
 H     -0.6786951258     5.2289942329    -1.9467548943
 F     -1.2382599388     4.9523545865    -2.6185038996
 H     -2.3992686295     6.1717893268    -2.1491441584
 F     -2.6738932507     6.8480605563    -1.5940517863
 H     -1.1428309612     6.7274773783    -0.7166859702
 F     -0.3204934340     6.3367661948    -0.6071653668
          6
Energy: -16.832013554540197 Kcal/mole
 H     -0.3513826488     5.4278297909    -2.0993453629
 F     -0.8690831683     4.9948121670    -2.7201278607
 H     -2.2242617724     6.0356501290    -2.3343820214
 F     -2.5815932100     6.7126283749    -1.8295021364
 H     -1.0718797191     6.9455904320    -0.9879233239
 F     -0.1934522841     6.7149059908    -0.8612784267
          6
Energy: -16.783842193557007 Kcal/mole
 H     -0.2167500531     5.3602095443    -2.0554983869
 F     -0.8876462267     4.8383708286    -2.3996955383
 H     -2.0032956935     6.2350491129    -2.3134591522
 F     -2.1287383035     7.1075951106    -2.0608396092
 H     -0.4911654716     7.2215993331    -1.4202493681
 F      0.3468442966     6.8617682652    -1.3245925286
          6
Energy: -16.83603134610769 Kcal/mole
 H     -0.4140509443     5.3745998256    -2.1005850724
 F     -1.0088042073     4.8558455583    -1.6336251530
 H     -2.0861724624     6.2683409736    -1.5286218030
 F     -2.2276318085     7.1580228470    -1.6999239266
 H     -0.6577424831     7.2828243481    -2.4635561750
 F      0.1211767146     6.8856709512    -2.7400395611
          6
Energy: -16.83168083817742 Kcal/mole
 H     -1.2979001477     5.1060222160    -3.0203060731
 F     -1.8380095262     4.6879136860    -2.4084595920
 H     -2.0529688631     6.1889703182    -1.5598503959
 F     -1.8519206445     7.0812416212    -1.4941196134
 H     -0.8415944631     6.9987491227    -2.9196945465
 F     -0.4761506475     6.5028688253    -3.5989901731
          6
Energy: -16.748346950202574 Kcal/mole
 H     -1.0601248346     5.0062257898    -2.8071752055
 F     -1.5691412462     4.6589326708    -2.1280737534
 H     -1.9779478752     6.2245730135    -1.4983564931
 F     -1.9124787577     7.1390871479    -1.5146872180
 H     -0.8597166430     6.9502369457    -2.8956209040
 F     -0.4164390878     6.4682806206    -3.5375804898
          6
Energy: -16.842671458612358 Kcal/mole
 H     -1.0383322569     5.1811341854    -2.3475433284
 F     -1.6160999250     4.7973310779    -1.7477361124
 H     -2.2140584722     6.4310785508    -1.3576188123
 F     -2.1580440056     7.3375078448    -1.4846515424
 H     -0.8886447346     7.1068931053    -2.6490569194
 F     -0.3234044055     6.5598080569    -3.1203215161
          6
Energy: -16.85058427693025 Kcal/mole
 H     -1.0995488819     5.1725452623    -2.2184286438
 F     -1.8709155202     4.9046937332    -1.8011301084
 H     -2.3399050277     6.5600716058    -1.6376260847
 F     -2.2136325699     7.4580976767    -1.7736166812
 H     -0.7007122227     7.0657177871    -2.5370067799
 F     -0.0770550613     6.4504124430    -2.8078205137
          6
Energy: -16.82149619873462 Kcal/mole
 H     -1.0818583387     5.2441395134    -2.0512111121
 F     -1.9016128664     4.8386615238    -1.9842849266
 H     -2.6441456478     6.3044324347    -2.6578739840
 F     -2.5566495914     7.1372265480    -3.0316217666
 H     -0.8368472232     7.0161880488    -2.8244320011
 F     -0.0826949197     6.5671819750    -2.5588442591
          6
Energy: -16.818308987653666 Kcal/mole
 H     -1.1719425687     5.6068210810    -1.5514673694
 F     -1.8595321716     5.0139729227    -1.6804658157
 H     -2.6418416920     6.1350493415    -2.7457662787
 F     -2.6802145019     6.9478349163    -3.1686092011
 H     -1.1956491798     7.3609163170    -2.4301472485
 F     -0.4514929734     7.1798978487    -1.9258131779
          6
Energy: -16.842237849974595 Kcal/mole
 H     -1.1795630127     5.6761982666    -1.5589398768
 F     -1.9218480641     5.1384927013    -1.5311077468
 H     -2.6195012887     6.0384256627    -2.8627460977
 F     -2.5592512488     6.7373079240    -3.4533580833
 H     -0.9773313448     7.1598921247    -2.8267202188
 F     -0.3105814368     7.0251773187    -2.2117523488
          6
Energy: -16.84778112181442 Kcal/mole
 H     -1.1513586192     5.5077642603    -1.6530886411
 F     -1.9110967683     4.9967215480    -1.7033110572
 H     -2.6031723596     6.1102536751    -2.8522259649
 F     -2.5422817099     6.8643750983    -3.3703786528
 H     -0.9231235078     7.1946918233    -2.7258856441
 F     -0.2383356561     6.9480435753    -2.1681050063
          6
Energy: -16.84610782072241 Kcal/mole
 H     -1.0990819626     5.5063465943    -1.7845727006
 F     -1.8762039359     5.0277182670    -1.6957731343
 H     -2.6405747394     6.0989584119    -2.8785038019
 F     -2.5950546510     6.7978969896    -3.4703667811
 H     -0.9107194398     7.0169973354    -3.0464177538
 F     -0.1855060084     6.7749499656    -2.5400902416
          6
Energy: -16.842299958272974 Kcal/mole
 H     -0.8882314147     5.5934038071    -1.8474806586
 F     -1.6493072847     5.1020578049    -1.7052427373
 H     -2.5323492275     6.1171764727    -2.8252198911
 F     -2.5540906757     6.8244674465    -3.4084486522
 H     -0.8765589329     7.1083173232    -3.0863146998
 F     -0.0809000882     6.9350606886    -2.6646535307
          6
Energy: -16.82524320675367 Kcal/mole
 H     -0.6914080436     5.4388982550    -2.0346557076
 F     -1.4505596524     4.9428962191    -1.8984212946
 H     -2.3636226303     6.0795200930    -2.9059549310
 F     -2.3777931226     6.8383907495    -3.4205455683
 H     -0.6678318470     7.0617042239    -3.1944108674
 F      0.1302265122     6.7722075354    -2.8477359150
          6
Energy: -16.83604449731439 Kcal/mole
 H     -0.6322552918     5.5366988615    -1.8679903818
 F     -1.3667263579     5.0082325260    -1.7191126292
 H     -2.2208427696     5.7531131782    -3.0419056621
 F     -2.2619570863     6.3751697000    -3.7143967748
 H     -0.6210888817     6.9394708105    -3.3176926532
 F      0.1316799016     6.8449412720    -2.8026272931
          6
Energy: -16.832703364201564 Kcal/mole
 H     -0.5968966166     5.5567749462    -1.8532003392
 F     -1.3399148462     5.0845431387    -1.5966656817
 H     -2.2861614128     5.7956790550    -2.8919345755
 F     -2.3356284067     6.3363170907    -3.6309559087
 H     -0.6737604830     6.8135466256    -3.3656317163
 F      0.1278304546     6.7324456646    -2.9277235035
          6
Energy: -16.849587345551186 Kcal/mole
 H     -0.7282388053     5.7856973169    -1.6809471941
 F     -1.4527311194     5.2755215160    -1.4448952103
 H     -2.3377278676     5.9855191136    -2.7527503654
 F     -2.4022974265     6.5435649128    -3.4775294063
 H     -0.7382277800     7.0146899934    -3.2286793592
 F      0.0312483316     6.9749761625    -2.7314688150
          6
Energy: -16.85328498160618 Kcal/mole
 H     -0.7282799252     5.8473500826    -1.6632024024
 F     -1.4118488100     5.2621428646    -1.4866943523
 H     -2.2863841834     5.8646671586    -2.8421825098
 F     -2.3635599589     6.4411727470    -3.5511071928
 H     -0.7793361094     7.1040250451    -3.1830294561
 F     -0.0269411077     7.1225171494    -2.6591508410
          6
Energy: -16.862843716653572 Kcal/mole
 H     -0.7842260747     5.9241321925    -1.5768970285
 F     -1.4838766764     5.3587038985    -1.3989395061
 H     -2.2848624874     5.8672157832    -2.8748100659
 F     -2.2851527984     6.3748900540    -3.6384564176
 H     -0.7493262457     7.0957601172    -3.1809096365
 F     -0.0412430043     7.1399248869    -2.5999134262
          6
Energy: -16.869505309196427 Kcal/mole
 H     -0.8643060239     5.9153747158    -1.5308829475
 F     -1.6007314662     5.4054416291    -1.3345800817
 H     -2.3197244849     5.8660894872    -2.8627870797
 F     -2.2877073140     6.3443271239    -3.6445496163
 H     -0.7117972232     6.9346828007    -3.2163983653
 F     -0.0064985489     6.9848148776    -2.6325066331
          6
Energy: -16.86936062548807 Kcal/mole
 H     -0.8161682606     5.9010105127    -1.5441472106
 F     -1.5545448243     5.4094606671    -1.3116223744
 H     -2.3421122058     5.8642232750    -2.8125457295
 F     -2.3243764311     6.3244324112    -3.6055034794
 H     -0.7357074745     6.9421281999    -3.2200440555
 F     -0.0092779135     6.9788498699    -2.6616171473
          6
Energy: -16.867202026739847 Kcal/mole
 H     -0.8219873878     5.8814736123    -1.5582470121
 F     -1.5797591704     5.4249289817    -1.3169216598
 H     -2.3583049395     5.8814078418    -2.8256775389
 F     -2.3081678526     6.3188554003    -3.6300499067
 H     -0.6769017427     6.8217274376    -3.2800478501
 F      0.0497607534     6.8574220580    -2.7218574607
          6
Energy: -16.87071681393911 Kcal/mole
 H     -0.8062747057     5.8308530984    -1.5821442061
 F     -1.5707558807     5.3829185167    -1.3458982674
 H     -2.3450824694     5.9122390127    -2.8330832679
 F     -2.3061448475     6.3706875365    -3.6263031697
 H     -0.6820624777     6.8588097352    -3.2602276088
 F      0.0516817392     6.8529111423    -2.7102515814
          6
Energy: -16.873996582933046 Kcal/mole
 H     -0.8278109833     5.8654905961    -1.5677601975
 F     -1.5935769881     5.4179756235    -1.3349045013
 H     -2.3458217839     5.9163383907    -2.8327813929
 F     -2.3045877745     6.3644525088    -3.6317698119
 H     -0.6803875084     6.8499426507    -3.2624745593
 F      0.0515928859     6.8533815206    -2.7101323859
          6
Energy: -16.876197650598044 Kcal/mole
 H     -0.8303367636     5.8671479929    -1.5728030283
 F     -1.5934430013     5.4178877024    -1.3346369908
 H     -2.3453390199     5.9148397311    -2.8335990788
 F     -2.3046133841     6.3645320092    -3.6317264356
 H     -0.6750267891     6.8520058406    -3.2695129157
 F      0.0513085122     6.8532720732    -2.7097590173
