          6
Energy: -16.326931537567305 Kcal/mole
 H      4.5831111972     3.5573540764     5.5482297982
 F      5.3871269364     3.9734514302     5.4022480068
 H      6.1492177090     2.3434915285     5.0047166221
 F      6.1373768638     1.4296996740     4.9289984545
 H      4.4373070721     1.4439686045     5.4300369139
 F      3.7384911697     1.9307135521     5.7700732216
          6
Energy: -15.783630390864232 Kcal/mole
 H      2.1481702824     2.8206755081     4.1121752991
 F      2.9186323494     2.6167984066     4.5657294092
 H      1.9748933945     0.8770729083     5.1046444741
 F      1.1946750158     0.4281650125     4.9296302384
 H      0.5182656107     1.6649164060     4.0441929917
 F      0.4549784655     2.5342404500     3.7593080257
          6
Energy: -15.701610384410913 Kcal/mole
 H     -2.4715186428     4.1374990160     1.1935562261
 F     -2.0721936772     4.0679209366     2.0161055940
 H     -2.7897305448     5.6131662220     2.3895031387
 F     -3.3003235042     6.3382450462     2.1561696254
 H     -3.7709722175     5.7011918063     0.3834541026
 F     -3.4160562857     4.9833778794    -0.0633868621
          6
Energy: -16.4781139710135 Kcal/mole
 H     -1.2904055793     5.0684455656     3.5279462005
 F     -0.8863661520     5.1305172719     2.7071001464
 H     -2.2066468201     6.4229788589     2.2588346598
 F     -2.9375037743     6.8843360912     2.5652438906
 H     -2.8197927247     6.1216124839     4.1686187922
 F     -2.3929775710     5.5870999325     4.7793676415
          6
Energy: -16.308596302520982 Kcal/mole
 H     -2.4903471124     1.0157413441     6.8146330789
 F     -3.2768838843     0.5955261942     7.0283341185
 H     -3.0166263388    -0.5341934262     5.6367269998
 F     -2.6658762973    -0.8155060570     4.8375232634
 H     -1.4137750529     0.3603196701     5.1665599696
 F     -1.0769347143     1.0541731508     5.6625387328
          6
Energy: -14.510939815622464 Kcal/mole
 H      0.3129221865     0.3702705019     3.6990405876
 F     -0.1558752786    -0.4046881843     3.5556635622
 H      0.8272396559    -1.0857273178     2.3154448801
 F      1.3619694062    -1.3208305558     1.6085647194
 H      1.9202046189     0.5951721783     2.1282122166
 F      1.6907210619     1.2516640072     2.7259117863
          6
Energy: -16.19080749263054 Kcal/mole
 H      5.5609952126     4.2932510061     5.0129263236
 F      6.2463171280     4.2498341943     5.6206580512
 H      7.2035157246     5.5052850686     4.6008690895
 F      7.1202815395     6.1671979538     3.9717169593
 H      5.5045188670     5.5053906609     3.4497499541
 F      4.8872262680     4.8412785323     3.5868409015
          6
Energy: -15.603921672951628 Kcal/mole
 H      4.6204520781     2.5830858424     2.2888380845
 F      3.8658827668     2.2980980833     2.7250675329
 H      3.9761073726     0.7125923000     2.4151489796
 F      4.3100369190    -0.0846697392     2.1089573749
 H      5.9063941225     0.8927072688     1.6982768445
 F      6.1399592387     1.7634611956     1.5305749199
          6
Energy: -16.09991839048746 Kcal/mole
 H      6.4614214881    -5.1153986730     1.2407974578
 F      7.0674864422    -5.6086522935     1.7206673748
 H      6.4064311392    -5.0191785740     3.3679804220
 F      5.6723835102    -4.6219532699     3.7478160919
 H      5.1257804338    -3.9047657158     2.1465518926
 F      5.1414013027    -3.8341615432     1.2324074624
          6
Energy: -16.007368635947785 Kcal/mole
 H      4.9906151945    -4.4679097851     2.2823767895
 F      4.9875470047    -4.2308552891     1.3965524547
 H      3.3265087340    -4.2869015231     1.5000077759
 F      2.4880075275    -4.4758584077     1.8195387172
 H      3.2969152874    -4.8447081377     3.3750293268
 F      4.0583021254    -4.7826445670     3.8823036077
          6
Energy: -15.624076233591325 Kcal/mole
 H      3.6708802594    -1.3252132128     0.6808065458
 F      3.6315053147    -0.4298675235     0.8749578024
 H      1.8338954670    -0.2241586354    -0.0995484350
 F      1.3149977143    -0.8737162769    -0.4864708983
 H      2.2906814674    -2.3121197568    -0.1345909028
 F      2.9641684268    -2.7745977444     0.2818444781
          6
Energy: -15.750078456231051 Kcal/mole
 H      4.9747486552    -0.8074247792     2.0452069644
 F      4.9977598376    -1.7193881770     2.1383855385
 H      3.5329815390    -1.6720385081     0.5744962761
 F      3.1184506455    -0.9883375846     0.1254905015
 H      3.8634572198     0.2687740909     0.8824886428
 F      4.4018030518     0.7286091356     1.4652617520
          6
Energy: -15.365159241411106 Kcal/mole
 H      1.8846623067    -1.2379925288    -2.5085588813
 F      1.3920068290    -1.8720167679    -2.0656222667
 H      1.2235523400    -3.1405895000    -3.5382019803
 F      1.6053896503    -3.1983117759    -4.3699215287
 H      2.7018889433    -1.7055297029    -4.4380558492
 F      3.0229517384    -0.9963297243    -3.9534497496
          6
Energy: -15.443532520131782 Kcal/mole
 H      4.6684607607     4.6650162001     3.4619982714
 F      3.9598352855     5.2220004758     3.6308397729
 H      3.9448858494     4.9899634848     5.3199342552
 F      4.0021622342     4.5681502379     6.1321423569
 H      5.3943126441     3.4747460003     5.1625825692
 F      5.8781748858     3.5043039180     4.3841914975
          6
Energy: -16.10141072920743 Kcal/mole
 H      2.9832018528    -3.7992748364     6.0962690610
 F      3.5286469296    -4.5303397995     6.1907290407
 H      3.7450747250    -4.6156808845     4.3790404564
 F      3.4803123636    -4.2518670951     3.5800226727
 H      2.6055920856    -2.8724523437     4.5286465413
 F      2.3517747582    -2.5044056707     5.3292759255
          6
Energy: -15.96900285532655 Kcal/mole
 H      1.0163218733    -4.0537115038     4.1007386400
 F      1.4179449793    -3.9838382689     3.2793339822
 H      2.5175471635    -5.5081909270     3.3717428996
 F      2.6028391121    -6.3073149645     3.8133479905
 H      1.4717935860    -5.7949921506     5.0730980043
 F      0.8813036275    -5.2849329649     5.5548139331
          6
Energy: -15.380904517472914 Kcal/mole
 H     -0.9723314785    -1.3389539198     3.4367915677
 F     -0.9438283816    -0.4271072865     3.5295939958
 H     -0.5932407609    -0.3259595445     1.9314751639
 F     -0.7074187425    -0.5534959571     1.0505213799
 H     -1.1550841481    -2.3453698460     1.5781379815
 F     -1.0918151780    -2.7804271666     2.3828809002
          6
Energy: -16.108349249485855 Kcal/mole
 H     -0.0135132187    -1.2692713982     3.7662525229
 F     -0.7652995488    -1.5943803061     3.3539292129
 H     -0.4942428403    -3.0439654462     4.5445864841
 F     -0.0200986513    -3.2830035199     5.2922074357
 H      0.9375715468    -1.8979285649     5.3772209390
 F      1.2248434177    -1.1096410863     5.0071307833
          6
Energy: -15.588096652235208 Kcal/mole
 H     -3.0042892120    -5.1392076660     4.2146860187
 F     -3.3404923635    -4.7774658943     3.4420287003
 H     -1.6559246030    -4.0838439821     3.2861469771
 F     -0.7738175348    -4.0926932215     3.5365422869
 H     -1.2471374678    -5.0804743309     5.1730316690
 F     -1.9047558650    -5.6100966362     5.5307008700
          6
Energy: -16.269426966322385 Kcal/mole
 H     -3.1000223513    -4.9694051336     4.5800664874
 F     -2.2524741334    -5.2233708323     4.3391257434
 H     -2.4776528122    -4.1882685616     2.9074949338
 F     -3.0038107138    -3.5468798229     2.5167682411
 H     -4.4167880568    -3.7753672137     3.7329415741
 F     -4.7018024170    -4.2183606397     4.4835497536
          6
Energy: -16.17570205695216 Kcal/mole
 H     -0.0030501003    -6.6390342062    -0.8209029817
 F     -0.2398911080    -7.0756144899    -0.0500638331
 H     -1.8247882752    -6.5085097022    -0.1007568966
 F     -2.5644551519    -6.0940187415    -0.4500120398
 H     -1.5376162509    -5.8345749822    -1.8469327231
 F     -0.7685439643    -5.9381706623    -2.3354864591
          6
Energy: -16.028857458923028 Kcal/mole
 H     -5.5601467232     1.0166522650    -4.7387107567
 F     -6.3563142943     1.4705702479    -4.7697697880
 H     -6.8482636452     0.6022139165    -3.1950457941
 F     -6.6156675483    -0.0746802204    -2.6218072895
 H     -5.0995236791    -0.5566962777    -3.3845042735
 F     -4.4544073756    -0.3834713418    -4.0127614475
          6
Energy: -16.617022888195834 Kcal/mole
 H     -6.7786664399    -2.6237936801    -1.9800269145
 F     -6.6076813719    -1.9407953887    -2.5675355872
 H     -4.8895500861    -1.8127687907    -1.9949556754
 F     -4.2436167525    -2.0593288353    -1.3925710200
 H     -5.4096213948    -3.3202925642    -0.7166853257
 F     -6.2369462402    -3.7142644402    -0.7514525674
          6
Energy: -16.274485240380727 Kcal/mole
 H     -3.4634211983    -4.8632777619    -3.4552284201
 F     -3.0919145605    -5.6837463927    -3.2828827092
 H     -4.1103146526    -6.5692529172    -4.3782182149
 F     -4.8196514328    -6.5051582864    -4.9558186050
 H     -5.1075037821    -4.7637748294    -4.7697283902
 F     -4.8333375087    -3.9680376405    -4.4056896823
          6
Energy: -16.274539478814916 Kcal/mole
 H     -5.1417240088    -0.4740380830    -7.2113361615
 F     -6.0344297611    -0.5879196319    -7.0352781234
 H     -5.6911326077    -2.3159200960    -6.8445971352
 F     -5.0476754788    -2.9527654078    -6.6987205706
 H     -3.6762881478    -1.8380094795    -7.1626656645
 F     -3.4794004568    -0.9477515378    -7.2604666582
          6
Energy: -16.0682651368179 Kcal/mole
 H     -6.1288452927    -2.7803773164    -1.1465896229
 F     -5.4888804411    -2.2023470250    -1.4583827770
 H     -4.8630214702    -3.2887911508    -2.7664421482
 F     -4.8051347258    -4.1352179263    -3.1144361690
 H     -6.1186996046    -4.5762339527    -2.1071193409
 F     -6.8712075981    -4.4579867768    -1.5965918439
          6
Energy: -16.386160960654593 Kcal/mole
 H     -1.5436899310    -3.0256018065    -0.5923106685
 F     -1.3720930271    -3.8419747965    -0.9730712806
 H     -3.1558057345    -3.9676579938    -1.3643281219
 F     -3.9821456789    -3.5806193853    -1.4551709081
 H     -3.3910557160    -2.1863089922    -0.6600149645
 F     -2.7438225325    -1.6492146879    -0.2946276159
          6
Energy: -16.215541461978773 Kcal/mole
 H     -2.6646619120    -5.5974163521     0.1604868015
 F     -3.2771460142    -6.1764809972    -0.2006729435
 H     -3.8241659566    -5.0432839302    -1.5690920041
 F     -3.5973289861    -4.2112089594    -1.8806770356
 H     -2.3851749821    -3.9578349438    -0.6452623846
 F     -1.8352199343    -4.1367877304     0.0663655698
          6
Energy: -16.243531843825224 Kcal/mole
 H     -3.1415073486    -3.6440841606    -3.5299546755
 F     -2.9541290420    -4.4486695121    -3.9279757582
 H     -4.0653772385    -5.3737826806    -2.6812243966
 F     -4.4513945163    -5.3264445369    -1.8507794788
 H     -4.1797497369    -3.6116988181    -1.7798526309
 F     -3.8943740205    -2.8401086493    -2.1849431293
          6
Energy: -16.422510364027687 Kcal/mole
 H     -4.9945397629    -4.9733927861    -2.3682566781
 F     -4.9818157782    -4.1495127879    -2.7706853660
 H     -4.8958172938    -4.9289917132    -4.2544525298
 F     -4.9475148611    -5.5964660249    -4.8811058668
 H     -4.9732540899    -6.6695238669    -3.5533176417
 F     -4.9466065204    -6.7476167734    -2.6400376162
          6
Energy: -16.446108557424623 Kcal/mole
 H     -5.8383114432    -6.9903627893    -5.8002005558
 F     -5.0635699249    -6.7276742913    -6.2145184687
 H     -5.3250960733    -4.9774049075    -5.5351815867
 F     -5.9148012085    -4.3978922518    -5.1385685066
 H     -7.1080248803    -5.7342335097    -4.9120190391
 F     -7.3010346533    -6.6277543604    -4.9845222586
          6
Energy: -16.512658970465623 Kcal/mole
 H     -4.3936026279    -2.7908779720    -5.8918935136
 F     -4.5581716740    -3.6775293051    -5.7255942579
 H     -6.3450735571    -3.3526797850    -5.5114089890
 F     -7.0480395483    -2.7638575323    -5.5154301838
 H     -5.9197977511    -1.5696627790    -6.0223984302
 F     -5.1081756011    -1.2117001087    -6.2548230682
          6
Energy: -16.474229661648792 Kcal/mole
 H     -6.2085564088    -1.3748449755    -4.7286589413
 F     -5.8204482293    -1.2427448487    -3.9084086152
 H     -6.2049075525    -2.9924912593    -3.4944588185
 F     -6.4950088839    -3.7965795649    -3.8263808186
 H     -7.1640448418    -3.0215529887    -5.3003424580
 F     -7.2036751086    -2.3044803040    -5.8705399737
          6
Energy: -16.71148562960599 Kcal/mole
 H     -6.4916376203    -1.5725265141    -4.1353505262
 F     -6.5200933894    -1.7628268608    -5.0319357409
 H     -4.9786910048    -0.9663559804    -5.2053814459
 F     -4.3255368975    -0.4030056902    -4.8940694439
 H     -5.0371652340    -0.5447986009    -3.2930342803
 F     -5.6917860317    -0.9043833189    -2.7610009714
          6
Energy: -16.157442247643303 Kcal/mole
 H     -3.7137327266    -3.0591848548    -5.7114072661
 F     -2.8846307721    -3.4133058360    -5.8789700296
 H     -3.1203590109    -3.9960922377    -4.2666295466
 F     -3.5769097879    -3.9946219989    -3.4713634110
 H     -4.7949144924    -2.9298779602    -4.1085843519
 F     -5.0978438281    -2.5550467545    -4.8887281751
          6
Energy: -16.621099858594164 Kcal/mole
 H      0.2470487517    -3.5889601591    -6.7649597706
 F     -0.5161354327    -3.4090563067    -7.2404316462
 H     -1.4988964199    -4.7583166423    -6.3989908466
 F     -1.4481172656    -5.4052652997    -5.7510958612
 H      0.2108662375    -5.0094740376    -5.3330664454
 F      0.9807540283    -4.5204551967    -5.4280525647
          6
Energy: -16.446585251362876 Kcal/mole
 H     -0.4941164731    -2.5073070121    -4.8605573578
 F      0.1054097946    -2.3272336096    -4.1904597350
 H     -0.9202930805    -3.0454425337    -2.8582180872
 F     -1.6476421792    -3.5776904512    -2.6892079015
 H     -2.0790080956    -3.5733991409    -4.3048446362
 F     -1.9985567433    -3.3998400042    -5.2016689256
          6
Energy: -16.646700839788934 Kcal/mole
 H     -4.0784404950    -1.7709655497    -2.9413552992
 F     -4.0826612072    -2.4452610882    -3.5628025716
 H     -4.4486923677    -3.5319541525    -2.2916356068
 F     -4.6348024225    -3.7607415585    -1.4233566364
 H     -4.5378508070    -2.0058156784    -0.9796798397
 F     -4.2583953890    -1.1873192975    -1.2844048696
          6
Energy: -16.67944144088966 Kcal/mole
 H     -2.6656665443     0.3959525908    -4.3615423632
 F     -2.6181292372    -0.0111321038    -5.1818540453
 H     -2.4768875087    -1.5355611704    -4.2573874766
 F     -2.3506381961    -1.9242630790    -3.4364971445
 H     -2.5344227412    -0.4020670731    -2.6216588144
 F     -2.7019076523     0.4984401408    -2.6655286482
          6
Energy: -16.787358393629347 Kcal/mole
 H     -1.0497513622     1.0728809266    -3.9695312116
 F     -1.5654034233     0.9772451471    -4.7217584043
 H     -0.8162833942    -0.5574671490    -4.9664088082
 F     -0.2505732824    -1.2282735042    -4.7001760093
 H      0.2405381084    -0.2599656992    -3.2558279537
 F      0.0948460095     0.5185914304    -2.7937547905
          6
Energy: -16.452917046273456 Kcal/mole
 H      0.7826314702     1.2339719589    -6.9163692921
 F     -0.1109685918     1.0991855140    -6.7608040533
 H      0.3632946365    -0.1409923332    -5.6560802518
 F      0.8981259823    -0.6196185021    -5.0853251186
 H      2.2158724288     0.2368797132    -5.8423773673
 F      2.4979250891     0.8526822224    -6.4605379989
          6
Energy: -16.743713131177515 Kcal/mole
 H      2.4277088965     1.7432969996    -6.2776887182
 F      2.4976692577     2.5341157545    -5.8187766952
 H      2.8601486634     1.5968258412    -4.3256831477
 F      2.8737565121     0.7739449651    -3.9212441656
 H      2.5580437622    -0.0276776364    -5.4615221121
 F      2.4425768675     0.0401925430    -6.3686880479
          6
Energy: -16.79196472385587 Kcal/mole
 H      3.7035674729     1.5411011194    -6.1220870102
 F      3.1887649179     2.0968321629    -5.6053372288
 H      2.7005769457     0.7139475646    -4.6699500115
 F      2.7396686531    -0.1887671058    -4.5135305045
 H      3.8307197683    -0.4141921656    -5.9246709057
 F      4.3403925842    -0.0181304750    -6.5760216238
          6
Energy: -16.657349715218174 Kcal/mole
 H      1.6726467671    -0.2349192258    -7.4356466626
 F      1.0025336612    -0.7542422496    -7.0861598642
 H      0.8644228821     0.3835722511    -5.7846977380
 F      1.1317088412     1.1475066565    -5.3535928317
 H      2.3803808252     1.3762847244    -6.5129148981
 F      2.8518901059     1.1432974568    -7.2641039098
          6
Energy: -16.746003046024384 Kcal/mole
 H      0.7253724305    -0.5151726160    -6.5698640053
 F     -0.1474450300    -0.7549239101    -6.4229014330
 H     -0.6646884337     0.9524967129    -6.5514746120
 F     -0.4504299678     1.8372741728    -6.6617068949
 H      1.2566297968     1.4197479852    -6.6936452821
 F      1.9073288516     0.7769478789    -6.7591262986
          6
Energy: -16.663777664710437 Kcal/mole
 H      2.9902047751     0.1121669312    -5.6845462262
 F      3.2263838793     0.0723092543    -4.7993796903
 H      3.0015860181     1.8671921183    -4.7029874632
 F      2.7706046377     2.6355125794    -5.1470823528
 H      2.4057478096     1.7080950496    -6.7173653800
 F      2.4095987051     0.8796434454    -7.1104838228
          6
Energy: -16.79697546160304 Kcal/mole
 H      3.1429704329     1.1874576820    -5.5160888708
 F      4.0354219578     1.3876655339    -5.5819378777
 H      3.6484057660     2.7538511900    -6.6223201442
 F      2.9895462958     3.2138893184    -7.0640871857
 H      1.7322973085     2.1286453628    -6.4860183497
 F      1.4896759845     1.4037189883    -5.9795544864
          6
Energy: -16.693581097328263 Kcal/mole
 H      3.4576223651     0.5677875492    -6.3486710881
 F      4.3082069672     0.7931454015    -6.6067576492
 H      4.1559455500     2.3108434985    -5.8642257266
 F      3.6668554275     2.9479770052    -5.4217997478
 H      2.2803307882     1.9133877838    -5.4549735924
 F      1.8702329423     1.1134061321    -5.6359103596
          6
Energy: -16.808646731014505 Kcal/mole
 H      2.8974027738     1.4912350066    -6.1524747378
 F      3.7029551193     1.3126903727    -6.5525950103
 H      4.3930932477     0.9378277637    -4.9607575003
 F      4.3299429531     0.9342079847    -4.0459417060
 H      2.6477732843     1.4216300940    -4.1801064631
 F      1.9277405426     1.6288198392    -4.7087975453
          6
Energy: -16.808472489851056 Kcal/mole
 H      3.4359207415     3.0693080320    -6.4310544376
 F      4.2477887304     2.6441811893    -6.4630940404
 H      4.4519414030     2.9252370676    -4.7569577836
 F      4.1168101029     3.2607592504    -3.9721005504
 H      2.6032558197     3.7830946904    -4.8023459086
 F      2.1559622870     3.8520237713    -5.5998835424
          6
Energy: -16.831981960000633 Kcal/mole
 H      3.8364597218     3.1015674355    -6.5945940568
 F      4.4266070754     2.3998843397    -6.6105919949
 H      4.0553478546     2.1095405344    -4.9110180737
 F      3.5411863054     2.3094721281    -4.1785194326
 H      2.7714370871     3.6370800577    -5.0352195257
 F      2.6820242209     4.1206662377    -5.8091954593
          6
Energy: -16.7957547190249 Kcal/mole
 H      3.7065817996     2.4947838348    -6.7188584904
 F      4.2688470214     1.8128928465    -6.4743763838
 H      3.7607636499     1.9826970097    -4.8505777472
 F      3.2543995787     2.3845352329    -4.2001851967
 H      2.5814007044     3.4967612341    -5.4115454985
 F      2.5951014352     3.7608087062    -6.2896002932
          6
Energy: -16.85551147374406 Kcal/mole
 H      3.8336820707     2.4924503613    -6.6858473913
 F      4.3505015212     1.7578889971    -6.5008980529
 H      3.4643366281     1.4767304748    -5.0038899560
 F      2.8039422616     1.7226738195    -4.4171360452
 H      2.3646440119     3.0776630839    -5.4518079616
 F      2.5156642410     3.5755945603    -6.2068881793
          6
Energy: -16.861326395907838 Kcal/mole
 H      3.6532081503     2.2971293608    -6.8544840337
 F      4.1843842768     1.5767023984    -6.6551704251
 H      3.4014752034     1.3990029240    -5.0936861351
 F      2.7999079408     1.6895428219    -4.4655202364
 H      2.3104544352     2.9640931264    -5.5462580730
 F      2.3749203233     3.4101806558    -6.3448437387
          6
Energy: -16.87676266537892 Kcal/mole
 H      3.6260891877     2.2958867526    -6.8306581376
 F      4.1582398889     1.5702169236    -6.6542837333
 H      3.4069284386     1.4047913005    -5.0910823610
 F      2.7996186593     1.6892357619    -4.4656583606
 H      2.2991242952     2.9705396051    -5.5436881084
 F      2.3755213610     3.4098386850    -6.3449800694
