          6
Energy: -16.861797749842538 Kcal/mole
 H     -1.6384910639     0.9344837567     0.6949234551
 F     -1.6529664057     1.8140058401     0.9539994465
 H     -1.7170050088     2.2884835857    -0.7224994725
 F     -1.7126014366     2.0893033304    -1.6175954643
 H     -1.6417912129     0.3849651528    -1.1998349201
 F     -1.6192450643    -0.2691937963    -0.5576069696
          6
Energy: -16.822453118175133 Kcal/mole
 H     -2.0613434598     0.8571552151     0.5462559297
 F     -2.0128880499     1.7198040594     0.8534660285
 H     -1.8799163446     2.2843380609    -0.8015221466
 F     -1.8057856560     2.0881841854    -1.6942243915
 H     -1.8539666838     0.3572011372    -1.3394237217
 F     -1.9507859830    -0.3098489717    -0.7176848895
          6
Energy: -16.871127296692634 Kcal/mole
 H     -1.8500726476     0.9058190626     0.4795396471
 F     -2.0634687759     1.7553470091     0.7509311731
 H     -2.2441581615     2.2308841584    -0.9185962935
 F     -2.2218921375     2.0252176069    -1.8119576391
 H     -1.7654438223     0.3775406712    -1.4039925596
 F     -1.5851100103    -0.2631464047    -0.7732082961
          6
Energy: -16.8417722694619 Kcal/mole
 H     -1.9566111531     0.8887854427     0.5658615644
 F     -1.9655719467     1.7672860599     0.8286264207
 H     -1.9751399762     2.2730500903    -0.8950937972
 F     -1.9701278190     2.0319458866    -1.7798155847
 H     -1.9714010165     0.3575346858    -1.3239059610
 F     -1.9656347700    -0.3125837771    -0.6979690663
          6
Energy: -16.869897565256508 Kcal/mole
 H     -2.1196283577     0.9198955058     0.6043093775
 F     -2.0775338805     1.7979176821     0.8654494028
 H     -2.0916255924     2.2831148018    -0.8083938252
 F     -2.1019951271     2.0640935023    -1.6987932541
 H     -2.1540467288     0.3735950481    -1.2715716452
 F     -2.1646590251    -0.2892734689    -0.6380247185
          6
Energy: -16.84206705605294 Kcal/mole
 H     -2.4435950178     0.9121723197     0.5971098385
 F     -2.2843750110     1.7642883363     0.8961688354
 H     -1.9362467559     2.2515076904    -0.7736085234
 F     -1.8218876972     2.0290059743    -1.6558239121
 H     -2.2853282750     0.3937994724    -1.2921914644
 F     -2.5509245526    -0.2418615471    -0.6869785387
          6
Energy: -16.846509285852846 Kcal/mole
 H     -2.3344067088     0.8322358575     0.6882131085
 F     -2.1657836177     1.6806060204     0.9927181493
 H     -1.8676335641     2.2284344215    -0.6452521886
 F     -1.8018645735     2.0819314273    -1.5480812492
 H     -2.2443077885     0.4351542602    -1.2655419681
 F     -2.4697343949    -0.2534027424    -0.7034377969
          6
Energy: -16.8473873300822 Kcal/mole
 H     -1.9937702944     0.8070202266     0.6218510286
 F     -1.9605168645     1.6836904109     0.8887453850
 H     -2.2333662985     2.2098576385    -0.7522274423
 F     -2.3906999170     2.0520072367    -1.6417320140
 H     -2.3325268280     0.3491182932    -1.2904820500
 F     -2.2275150700    -0.3411474232    -0.6960118898
          6
Energy: -16.83217266040782 Kcal/mole
 H     -1.9267037864     0.8864994190     0.6419857596
 F     -1.8356042471     1.7654696675     0.8869371349
 H     -2.2776860122     2.2941290573    -0.7170284495
 F     -2.5011519781     2.0914398981    -1.5829782557
 H     -2.4658521663     0.3736955436    -1.1883235318
 F     -2.2810457212    -0.2939972926    -0.5875558110
          6
Energy: -16.870080948718908 Kcal/mole
 H     -1.8405078245     0.8741294709     0.6107703653
 F     -1.7464000676     1.7465677030     0.8770113488
 H     -2.0918620201     2.2867455139    -0.7621200291
 F     -2.2904643992     2.0726074538    -1.6313673968
 H     -2.2765167115     0.3820026547    -1.2392440716
 F     -2.1602024620    -0.3014163085    -0.6389953597
          6
Energy: -16.868806190290854 Kcal/mole
 H     -1.6021407126     0.9072475019     0.4658554375
 F     -1.6856184985     1.7517063069     0.8134324590
 H     -2.3182664662     2.2972515158    -0.7229024962
 F     -2.5620866095     2.1049075329    -1.5857144861
 H     -2.1025179557     0.4361530829    -1.3599172306
 F     -1.7611980439    -0.2282200685    -0.8279416358
          6
Energy: -16.83349613714057 Kcal/mole
 H     -1.4786846413     0.9177142132     0.4022251232
 F     -1.4947056278     1.7829270376     0.7056045828
 H     -2.3124705727     2.2597025751    -0.7774199293
 F     -2.6839563054     2.0189973813    -1.5805066993
 H     -2.2570548573     0.3633481905    -1.2790355671
 F     -1.8805890520    -0.2771876673    -0.7415634168
          6
Energy: -16.857682861211515 Kcal/mole
 H     -1.0936772588     1.0537612924     0.1835921452
 F     -1.1368943583     1.9105454992     0.5075398343
 H     -2.3276156545     2.3156417187    -0.7209500372
 F     -2.8251226400     2.0567938017    -1.4464660985
 H     -2.1511459975     0.4298067004    -1.3776465244
 F     -1.6046130380    -0.1744286951    -0.9568255280
          6
Energy: -16.865126887178747 Kcal/mole
 H     -0.9916085883     1.1136309575     0.0643836736
 F     -1.1065364154     1.9550331334     0.4103937498
 H     -2.4307555644     2.2343759066    -0.7199820096
 F     -2.9791659959     1.9352031090    -1.3912722864
 H     -2.1339762480     0.4058443067    -1.4046842710
 F     -1.4661863575    -0.1324286515    -1.0803266218
          6
Energy: -16.861750314795074 Kcal/mole
 H     -1.1152695981     1.0499331251     0.1675287460
 F     -1.3098736314     1.8560433166     0.5589423753
 H     -2.5432650456     2.1699271094    -0.6690701793
 F     -3.0025662813     1.8967918476    -1.4142738451
 H     -2.0435217866     0.4335482792    -1.4779923930
 F     -1.3871697319    -0.1044546636    -1.1306542091
          6
Energy: -16.866977954612423 Kcal/mole
 H     -1.1543981639     1.0362523052     0.2077283424
 F     -1.3990921723     1.7989366094     0.6541883007
 H     -2.6862229582     2.0547407952    -0.5085250820
 F     -3.1555692753     1.7963258233    -1.2527191003
 H     -2.1171360441     0.3831399261    -1.3898123896
 F     -1.4147397342    -0.1163687101    -1.0767316552
          6
Energy: -16.83120477452701 Kcal/mole
 H     -1.2905122693     1.0033813407     0.3325125627
 F     -1.5604529425     1.7536754349     0.7853699411
 H     -2.7536486571     2.0791572041    -0.4760853725
 F     -3.1479383890     1.8043769332    -1.2570593862
 H     -2.0856808470     0.3882943875    -1.3797126018
 F     -1.3989223491    -0.0970310950    -1.0140475343
          6
Energy: -16.86278182374531 Kcal/mole
 H     -1.1342979325     1.0950808954     0.2641808231
 F     -1.4072966074     1.8359446291     0.7305301036
 H     -2.7164698717     2.0330952099    -0.4097562893
 F     -3.1771950664     1.7333377984    -1.1437636388
 H     -2.0650587780     0.4040680359    -1.3128490424
 F     -1.3212822054    -0.0552604837    -1.0358964812
          6
Energy: -16.855515186992193 Kcal/mole
 H     -1.1999454545     1.0059723621     0.3558066757
 F     -1.4417579637     1.7867332454     0.7715327315
 H     -2.7308594402     1.9852432920    -0.4199149141
 F     -3.1651737484     1.6966074287    -1.1742022733
 H     -2.0789295849     0.3311801124    -1.2674614506
 F     -1.3788365045    -0.1573154753    -0.9326021673
          6
Energy: -16.861546719472926 Kcal/mole
 H     -1.0942334985     1.0552218338     0.2395899480
 F     -1.2596041536     1.8729872930     0.6201174768
 H     -2.5389843705     2.1227016637    -0.5528255714
 F     -3.0268680533     1.8394808778    -1.2757671309
 H     -2.0873924422     0.3438501469    -1.3016661834
 F     -1.4301571646    -0.1801217700    -0.9350816500
          6
Energy: -16.86400152463841 Kcal/mole
 H     -1.0287830694     1.0475007356     0.2901940966
 F     -1.2708273049     1.8404298853     0.6820702909
 H     -2.6025599534     1.9596117076    -0.4236038965
 F     -3.1079589817     1.6327953871    -1.1154506388
 H     -2.0143070890     0.2435555152    -1.2119820475
 F     -1.2743185168    -0.1982047998    -0.8986870793
          6
Energy: -16.843746189864135 Kcal/mole
 H     -0.8760402448     1.1824581721     0.1690073245
 F     -1.1362722091     1.9707317547     0.5586136433
 H     -2.6226377109     1.9346130867    -0.3845521401
 F     -3.1422036412     1.4927404639    -0.9974867446
 H     -1.9419814170     0.2557364509    -1.2002339324
 F     -1.1339624997    -0.1086205531    -0.9652054174
          6
Energy: -16.859022597620537 Kcal/mole
 H     -0.9648832996     1.1878032312     0.1905708400
 F     -1.2189495120     1.9993087703     0.5337881467
 H     -2.6224690860     1.9504877243    -0.4953047143
 F     -3.1112345127     1.5338551953    -1.1498386656
 H     -1.9651410483     0.2122472570    -1.1884183118
 F     -1.1959625155    -0.1740257991    -0.8721170140
          6
Energy: -16.87000738590052 Kcal/mole
 H     -0.7722462556     1.4043929478    -0.0195633406
 F     -1.0912435678     2.1378825767     0.4289036918
 H     -2.5942421883     2.0270213561    -0.4689428517
 F     -3.1211807020     1.6158949714    -1.0967962571
 H     -1.8349062956     0.4614228506    -1.3807314153
 F     -0.9951601597     0.1427975635    -1.1958169657
          6
Energy: -16.858024044769024 Kcal/mole
 H     -0.7933150056     1.3975961261    -0.0253247727
 F     -1.0956925595     2.1460324399     0.4097613097
 H     -2.6221628674     1.9878537847    -0.4231333272
 F     -3.1801166285     1.5519021004    -1.0058191169
 H     -1.8921875854     0.4038581441    -1.3487425185
 F     -1.0377300066     0.1067436222    -1.1986951696
          6
Energy: -16.86386477492664 Kcal/mole
 H     -0.7347626989     1.3419137721    -0.0305404412
 F     -1.0306102429     2.0712487878     0.4400269458
 H     -2.6152495433     1.9084991577    -0.3169745885
 F     -3.1734791579     1.4574877851    -0.8878138296
 H     -1.9061420982     0.3455749696    -1.2680526852
 F     -1.0401902587     0.0546172724    -1.1883028886
          6
Energy: -16.872571491099848 Kcal/mole
 H     -0.7660643995     1.4054860797    -0.0851605303
 F     -1.0789399141     2.1577157413     0.3357295368
 H     -2.6502384780     1.9102397286    -0.3947586284
 F     -3.2092397003     1.4164172219    -0.9281871290
 H     -1.8941630678     0.3020778785    -1.2500612005
 F     -1.0247267399     0.0370727131    -1.1286456580
          6
Energy: -16.848987987653288 Kcal/mole
 H     -0.7342827242     1.3340501606    -4.325939E-40
 F     -1.0465622172     2.0510837195     0.4783506490
 H     -2.5890812880     1.8334892677    -0.2925481937
 F     -3.1572474965     1.3809405098    -0.8522586378
 H     -1.8483773227     0.2897989840    -1.2503335061
 F     -0.9734228554     0.0441918601    -1.1277740474
          6
Energy: -16.86635461949055 Kcal/mole
 H     -0.7608957079     1.3319950032    -0.0379279308
 F     -1.0793807798     2.0051718796     0.4971320209
 H     -2.6733642615     1.7897818654    -0.2092296554
 F     -3.2297854870     1.3492142849    -0.7899056639
 H     -1.9063949172     0.3546522288    -1.3261212409
 F     -1.0214871466     0.1214374743    -1.2674857927
          6
Energy: -16.86753308982111 Kcal/mole
 H     -0.7543172057     1.5005477408    -0.1765431827
 F     -1.0934951909     2.1342941953     0.3928536260
 H     -2.6694925515     1.8722414920    -0.2963036640
 F     -3.2223987422     1.4320531049    -0.8806134519
 H     -1.8643908092     0.5231034228    -1.4813779058
 F     -0.9695141371     0.3263285341    -1.4444403262
          6
Energy: -16.874963213372723 Kcal/mole
 H     -0.7220960424     1.5423278526    -0.1607560435
 F     -1.0908180160     2.1877022801     0.3762960531
 H     -2.6655042989     1.8411556186    -0.2872387693
 F     -3.2010322661     1.3582798234    -0.8537454001
 H     -1.8142280183     0.4553834217    -1.3960195113
 F     -0.9136924653     0.2848748450    -1.3668383008
          6
Energy: -16.851759429872857 Kcal/mole
 H     -0.7362186314     1.4587615734    -0.1748743903
 F     -1.0415165705     2.1487506523     0.3462755300
 H     -2.6369846415     1.9783024972    -0.4009540406
 F     -3.1687756912     1.5395188553    -1.0055664743
 H     -1.8755087445     0.4861526732    -1.4427966957
 F     -1.0065364862     0.2063669020    -1.3562164640
          6
Energy: -16.864934125763455 Kcal/mole
 H     -0.6932471643     1.4785423507    -0.3228802332
 F     -0.9791958348     2.2207069696     0.1335340920
 H     -2.6148233597     1.9312327176    -0.4380818160
 F     -3.2050957389     1.4405509143    -0.9397778258
 H     -1.9292640708     0.3677395210    -1.4008245724
 F     -1.0461946581     0.1219007666    -1.3755121390
          6
Energy: -16.86627654224793 Kcal/mole
 H     -0.6725241524     1.4571545160    -0.3669364141
 F     -0.9378751600     2.2175149900     0.0716177929
 H     -2.5700006820     2.0038806407    -0.5243417937
 F     -3.1766771940     1.5291487954    -1.0217976056
 H     -1.9306032727     0.3808253220    -1.4686518804
 F     -1.0642591035     0.0891124122    -1.3962615583
          6
Energy: -16.854823977482738 Kcal/mole
 H     -0.6488984346     1.4970550787    -0.4255296666
 F     -0.9153691918     2.3067596004    -0.0875046334
 H     -2.5321525594     1.9674647802    -0.6111564112
 F     -3.1544015998     1.4125510937    -0.9929494601
 H     -1.8860410770     0.2669940128    -1.3414382752
 F     -1.0055678862     0.0153656037    -1.2930739907
          6
Energy: -16.863892672907355 Kcal/mole
 H     -0.6405857050     1.5874303454    -0.5183826854
 F     -0.9321695451     2.3933012857    -0.1921314143
 H     -2.5923083742     1.9165416396    -0.4631272184
 F     -3.1957563552     1.2918948667    -0.7573311331
 H     -1.8808106657     0.1994641953    -1.1557941385
 F     -0.9803856435     0.0306527687    -1.1961237987
          6
Energy: -16.869145311020702 Kcal/mole
 H     -0.6136618727     1.6491780645    -0.6715645927
 F     -0.9126097403     2.4760502086    -0.4111771319
 H     -2.5640265250     1.9228810248    -0.4772838469
 F     -3.1754400322     1.2570298281    -0.6312471772
 H     -1.8649090282     0.1540265063    -1.0453738696
 F     -0.9682022443    -0.0022060175    -1.1567172218
          6
Energy: -16.87095038989952 Kcal/mole
 H     -0.6785420022     1.6764158322    -0.7747525038
 F     -0.9893405247     2.4796807779    -0.4600165742
 H     -2.5969356009     1.8420754921    -0.4002696699
 F     -3.1954583127     1.1591991450    -0.5280955594
 H     -1.8852248174     0.1362395478    -1.0558913443
 F     -0.9960077633     0.0174024173    -1.2457854388
          6
Energy: -16.866895476473587 Kcal/mole
 H     -0.7111590642     1.6751565903    -0.7492797794
 F     -1.0300687320     2.4418508345    -0.3602225088
 H     -2.6294645493     1.7610568043    -0.3327887965
 F     -3.2172273204     1.0799466490    -0.5103074751
 H     -1.8923350621     0.1366783711    -1.1427023373
 F     -1.0002295793     0.0451288113    -1.3341585613
          6
Energy: -16.866447832525125 Kcal/mole
 H     -0.7055597072     1.6542462349    -0.6592074720
 F     -1.0092138127     2.4069801171    -0.2325051321
 H     -2.6257857909     1.7375203377    -0.2055849000
 F     -3.1908427145     1.0466282738    -0.4159841137
 H     -1.8809642201     0.1504107617    -1.1408434078
 F     -0.9960986787     0.0821563672    -1.3715885296
          6
Energy: -16.869978515640128 Kcal/mole
 H     -0.6737650913     1.7046218427    -0.6765332441
 F     -1.0062313795     2.4508127481    -0.2599347566
 H     -2.5945084157     1.7355252873    -0.2126533626
 F     -3.1516092918     1.0322286989    -0.4021303340
 H     -1.8196814282     0.1587897972    -1.1294499987
 F     -0.9311284377     0.1039577386    -1.3493500406
          6
Energy: -16.858282901151426 Kcal/mole
 H     -0.6513361434     1.6261354695    -0.6777539025
 F     -0.9088848282     2.3606343475    -0.1929146784
 H     -2.5442459446     1.7686936204    -0.2151886418
 F     -3.1547143050     1.1373278902    -0.4789967079
 H     -1.8664577435     0.2337987851    -1.2507082772
 F     -0.9828311185     0.1432560326    -1.4785130128
          6
Energy: -16.867952354319755 Kcal/mole
 H     -0.6355838530     1.6539803173    -0.7102100467
 F     -0.8975586651     2.3426014212    -0.1642620885
 H     -2.5274345361     1.7590622268    -0.2040575497
 F     -3.1618851248     1.1630596294    -0.4924017091
 H     -1.9207941980     0.3093069148    -1.4097629512
 F     -1.0424499030     0.2333387380    -1.6620111136
          6
Energy: -16.867531366521007 Kcal/mole
 H     -0.6683971282     1.6353767628    -0.6872704501
 F     -0.9241892212     2.3228406825    -0.1369498488
 H     -2.6045060748     1.8229399613    -0.2841534904
 F     -3.2204981197     1.2429616825    -0.6378030299
 H     -1.9578916848     0.3669473709    -1.4702364582
 F     -1.0739199487     0.2622110413    -1.6904937418
          6
Energy: -16.860362430218004 Kcal/mole
 H     -0.6587087714     1.6951339438    -0.7646115327
 F     -0.9101947347     2.3797690863    -0.2088071320
 H     -2.5968347712     1.8095455455    -0.2679741212
 F     -3.2014888727     1.1965325499    -0.5834063403
 H     -1.9362658504     0.3559657056    -1.4397981029
 F     -1.0611509807     0.2711045650    -1.7003006014
          6
Energy: -16.865653255870484 Kcal/mole
 H     -0.6445997909     1.5915240295    -0.7067411843
 F     -0.8745309838     2.2988120291    -0.1703044853
 H     -2.5555490058     1.8049087424    -0.2646787760
 F     -3.1933651174     1.2296031911    -0.5857755377
 H     -1.9489910860     0.3170689205    -1.3889752732
 F     -1.0713180144     0.1888657422    -1.6216615955
          6
Energy: -16.869427685495566 Kcal/mole
 H     -0.6569596714     1.5358961926    -0.5813413570
 F     -0.8916798631     2.1897461116     0.0172200142
 H     -2.5651357737     1.7363062110    -0.1820183309
 F     -3.2011340560     1.1881292912    -0.5506607720
 H     -1.9608651984     0.3451264787    -1.4367244492
 F     -1.0778984911     0.2321678601    -1.6569496621
          6
Energy: -16.86445581345231 Kcal/mole
 H     -0.6595818562     1.5327138557    -0.6400961853
 F     -0.8920579545     2.2476476406    -0.1150118617
 H     -2.5890979189     1.7819281393    -0.2752869662
 F     -3.2248863810     1.2106610547    -0.6074254155
 H     -1.9753524890     0.2804272377    -1.4112793763
 F     -1.0889048520     0.1308202804    -1.5921587425
          6
Energy: -16.86327562778365 Kcal/mole
 H     -0.6255067828     1.5031618517    -0.6782655043
 F     -0.8632261275     2.1603761467    -0.0845922915
 H     -2.5324033711     1.7097458197    -0.2180320091
 F     -3.1925783717     1.1862382947    -0.5799682464
 H     -1.9665932843     0.3129622151    -1.5091177906
 F     -1.0866458750     0.1822886470    -1.7316171737
          6
Energy: -16.86942668663272 Kcal/mole
 H     -0.6442718357     1.4841643361    -0.6981802226
 F     -0.8524646835     2.1302908922    -0.0816859310
 H     -2.5334307714     1.7090208902    -0.2364154040
 F     -3.1903479128     1.2007110161    -0.6249639096
 H     -1.9828901036     0.3499043882    -1.5619275638
 F     -1.1042474225     0.2108230812    -1.7844863850
          6
Energy: -16.87192158853162 Kcal/mole
 H     -0.6213070257     1.5755820773    -0.7727741460
 F     -0.8562702688     2.2838054072    -0.2397628991
 H     -2.5415389863     1.8401246044    -0.3836969070
 F     -3.1916516250     1.2885521467    -0.7213511396
 H     -1.9703745465     0.3283088707    -1.5135962832
 F     -1.0922068462     0.1683491580    -1.7236519438
          6
Energy: -16.86749865814403 Kcal/mole
 H     -0.6659891522     1.5358195611    -0.6926292774
 F     -0.9024870767     2.3104974674    -0.2627085019
 H     -2.5720273637     1.9027771524    -0.4796676150
 F     -3.2369740301     1.3505036985    -0.7858194777
 H     -2.0066562090     0.2658261141    -1.4090807544
 F     -1.1179258800     0.0710725103    -1.5236164958
          6
Energy: -16.87127676138431 Kcal/mole
 H     -0.6526962473     1.5242758672    -0.6674037023
 F     -0.8891735457     2.2740515324    -0.1953825807
 H     -2.5719913166     1.9164053476    -0.4495404625
 F     -3.2339911625     1.3930976607    -0.8084196469
 H     -2.0120955143     0.3259701768    -1.4840629899
 F     -1.1277029546     0.1104718426    -1.5949650565
          6
Energy: -16.864363932086746 Kcal/mole
 H     -0.6568005629     1.4811541377    -0.5833874639
 F     -0.8926714406     2.2349713938    -0.1175404145
 H     -2.5694927788     1.9285377488    -0.4846298047
 F     -3.2280768941     1.4086223536    -0.8545540467
 H     -2.0069740977     0.3353138234    -1.4583319160
 F     -1.1262296154     0.0932880123    -1.5395825387
          6
Energy: -16.8698049503339 Kcal/mole
 H     -0.6472370965     1.4297943261    -0.5505761966
 F     -0.8641633174     2.1684950527    -0.0524263686
 H     -2.5565093215     1.9186781655    -0.4296231722
 F     -3.2161432029     1.4271674119    -0.8348259875
 H     -2.0067164353     0.3392791060    -1.4527577114
 F     -1.1325732863     0.0728991202    -1.5289447058
          6
Energy: -16.862405274154412 Kcal/mole
 H     -0.6338542728     1.4133301109    -0.5187901507
 F     -0.8648732453     2.1693684413    -0.0541125449
 H     -2.5471460950     1.9100100450    -0.4554002906
 F     -3.2067903266     1.4380996706    -0.8832543385
 H     -2.0093338786     0.3242124014    -1.4553650222
 F     -1.1384800852     0.0401166494    -1.4977002811
          6
Energy: -16.86670668794187 Kcal/mole
 H     -0.6361718832     1.4265795595    -0.5286849536
 F     -0.8703197573     2.1745818599    -0.0527056140
 H     -2.5517734851     1.9042137250    -0.4285294031
 F     -3.2017223371     1.4204820561    -0.8580164950
 H     -1.9845052266     0.3021589910    -1.4241675483
 F     -1.1089958121     0.0369614371    -1.4877483826
          6
Energy: -16.871896734839424 Kcal/mole
 H     -0.6409219655     1.4398877847    -0.5053427204
 F     -0.8656032088     2.1969103408    -0.0391622955
 H     -2.5510809110     1.9495212368    -0.4592929953
 F     -3.1974502292     1.4505123195    -0.8765289057
 H     -1.9821989175     0.3356810503    -1.4506579301
 F     -1.1045568545     0.0760659353    -1.5075209345
          6
Energy: -16.875386787546404 Kcal/mole
 H     -0.6403074526     1.4704215191    -0.5303517122
 F     -0.8717874739     2.2164879036    -0.0500487351
 H     -2.5492164884     1.9544797146    -0.4482268247
 F     -3.1980397295     1.4575666662    -0.8641532894
 H     -1.9767744341     0.3511588106    -1.4534501552
 F     -1.0972346947     0.1003038081    -1.5195607797
          6
Energy: -16.871817362765455 Kcal/mole
 H     -0.6447965311     1.4516033703    -0.5127297644
 F     -0.8668165787     2.2046562756    -0.0389076244
 H     -2.5378691392     1.9534469877    -0.4601591654
 F     -3.1937779829     1.4631934997    -0.8728625774
 H     -1.9753158689     0.3587898080    -1.4644443080
 F     -1.0973120682     0.0998990014    -1.5189775653
          6
Energy: -16.87135184523862 Kcal/mole
 H     -0.6498620839     1.4562260652    -0.5319412721
 F     -0.8753018219     2.1906070894    -0.0311913986
 H     -2.5531225971     1.9260273803    -0.4301779840
 F     -3.2026988100     1.4426645294    -0.8606429627
 H     -1.9784380393     0.3482072294    -1.4656623673
 F     -1.0971464443     0.1004603827    -1.5189129500
          6
Energy: -16.869778300351584 Kcal/mole
 H     -0.6341193946     1.5002237413    -0.5501993703
 F     -0.8852902951     2.2171106014    -0.0365113243
 H     -2.5578837183     1.9305412107    -0.4281197458
 F     -3.2024462435     1.4424250811    -0.8607521475
 H     -1.9627432132     0.3822513247    -1.4911479225
 F     -1.0819676069     0.1397780684    -1.5707095426
          6
Energy: -16.869264162501565 Kcal/mole
 H     -0.6390353575     1.4875399242    -0.5697187695
 F     -0.8724337171     2.2164978849    -0.0647093663
 H     -2.5548328833     1.9336971264    -0.4398491505
 F     -3.1957004036     1.4267110496    -0.8559536317
 H     -1.9625775065     0.3791034992    -1.5052650316
 F     -1.0817627007     0.1435470079    -1.6030782067
          6
Energy: -16.871934690345086 Kcal/mole
 H     -0.6266011584     1.4879507563    -0.5707392352
 F     -0.8664281526     2.2148563189    -0.0657834787
 H     -2.5482105131     1.9062078269    -0.4166798230
 F     -3.2004579573     1.4213903863    -0.8414318928
 H     -1.9674882910     0.3764623785    -1.5048171295
 F     -1.0843581458     0.1439218070    -1.5878534421
          6
Energy: -16.87484482560768 Kcal/mole
 H     -0.6288037490     1.4826699562    -0.5641033564
 F     -0.8663113103     2.2151364531    -0.0661354968
 H     -2.5512573320     1.9301510633    -0.4490615157
 F     -3.1959106950     1.4351442318    -0.8736545895
 H     -1.9652570014     0.3850809309    -1.5057301538
 F     -1.0844765106     0.1434646128    -1.5878050082
          6
Energy: -16.874503550063764 Kcal/mole
 H     -0.6383894654     1.4871197329    -0.5674558091
 F     -0.8769052208     2.2213552861    -0.0725847281
 H     -2.5633772680     1.9205656202    -0.4395520778
 F     -3.2048351193     1.4173634152    -0.8593238798
 H     -1.9669466382     0.3784529637    -1.5046581144
 F     -1.0843868792     0.1438162111    -1.5878618774
          6
Energy: -16.871648927834144 Kcal/mole
 H     -0.6449609274     1.4942143850    -0.5535819439
 F     -0.8860275367     2.2175814565    -0.0441548444
 H     -2.5618261809     1.9206028058    -0.4485964162
 F     -3.2057572296     1.4220402960    -0.8701141836
 H     -1.9588506557     0.3889233248    -1.5255703888
 F     -1.0737961093     0.1606735891    -1.5995265111
          6
Energy: -16.87401091748302 Kcal/mole
 H     -0.6380067516     1.5044375827    -0.5789714545
 F     -0.8729635752     2.2212605623    -0.0575799444
 H     -2.5584540734     1.8899924149    -0.3941531312
 F     -3.2014811241     1.3868738299    -0.8116179818
 H     -1.9592336179     0.3788996976    -1.5034253578
 F     -1.0737757940     0.1612053194    -1.6007012538
          6
Energy: -16.876077491539036 Kcal/mole
 H     -0.6334714206     1.5048658220    -0.5774932709
 F     -0.8732041640     2.2212378452    -0.0576583586
 H     -2.5617012119     1.8958298250    -0.3962484365
 F     -3.2013088709     1.3865641687    -0.8115068307
 H     -1.9567589727     0.3696842095    -1.4913706606
 F     -1.0715050159     0.1535895153    -1.5939255972
          6
Energy: -16.875745643687424 Kcal/mole
 H     -0.6349218123     1.5038472406    -0.5767547328
 F     -0.8731272241     2.2212918786    -0.0576975363
 H     -2.5587692007     1.8964268708    -0.4015436191
 F     -3.2014644073     1.3865324968    -0.8112259335
 H     -1.9576336682     0.3617987331    -1.4829892748
 F     -1.0714586153     0.1540078216    -1.5943702103
          6
Energy: -16.87664182159142 Kcal/mole
 H     -0.6342050238     1.5032640444    -0.5756175085
 F     -0.8731652481     2.2213228158    -0.0577578634
 H     -2.5588351558     1.8929800845    -0.3971898843
 F     -3.2014609086     1.3867153409    -0.8114568891
 H     -1.9569660042     0.3673650393    -1.4883458142
 F     -1.0714940333     0.1537125419    -1.5940860583
          6
Energy: -16.876643994210042 Kcal/mole
 H     -0.6295859076     1.5046219590    -0.5753452987
 F     -0.8734102815     2.2212507816    -0.0577723035
 H     -2.5561330322     1.8860971371    -0.3909457653
 F     -3.1987255372     1.3753796358    -0.7997629695
 H     -1.9570846169     0.3655999087    -1.4858199159
 F     -1.0714877412     0.1538061780    -1.5942200514
          6
Energy: -16.87692786710494 Kcal/mole
 H     -0.6324147001     1.5023584314    -0.5735271358
 F     -0.8732602206     2.2213708565    -0.0578687529
 H     -2.5537394769     1.8921084052    -0.3917639860
 F     -3.1991709768     1.3829833554    -0.7980875796
 H     -1.9571106067     0.3659462106    -1.4867133168
 F     -1.0714863625     0.1537878075    -1.5941726585
          6
Energy: -16.876952582015235 Kcal/mole
 H     -0.6308890594     1.5029288902    -0.5736072721
 F     -0.8733411523     2.2213405950    -0.0578645018
 H     -2.5539800651     1.8895508429    -0.3882021747
 F     -3.1991582141     1.3831190282    -0.7982765254
 H     -1.9571891208     0.3662362138    -1.4879407709
 F     -1.0714821975     0.1537724235    -1.5941075449
          6
Energy: -16.87717989286716 Kcal/mole
 H     -0.6316135287     1.5036172471    -0.5749039681
 F     -0.8733027209     2.2213040792    -0.0577957151
 H     -2.5534519770     1.8903170517    -0.3899844658
 F     -3.1991862280     1.3830783826    -0.7981819790
 H     -1.9574610455     0.3638936649    -1.4855766587
 F     -1.0714677725     0.1538966903    -1.5942329556
