          6
Energy: -16.876197650598044 Kcal/mole
 H     -0.8303367636     5.8671479929    -1.5728030283
 F     -1.5934430013     5.4178877024    -1.3346369908
 H     -2.3453390199     5.9148397311    -2.8335990788
 F     -2.3046133841     6.3645320092    -3.6317264356
 H     -0.6750267891     6.8520058406    -3.2695129157
 F      0.0513085122     6.8532720732    -2.7097590173
