          6
Energy: -10.441016049834303 Kcal/mole
 H     -3.6422887153     3.9962372204     6.1088378818
 F     -4.3689795767     3.8787636108     6.6556553494
 H     -5.0839583858     2.3235180595     2.9270369675
 F     -4.2417957007     1.9819823932     3.0495294180
 H     -2.9382005254     3.1058767809     3.7344711781
 F     -2.6880508071     3.8186953691     4.2542824695
          6
Energy: -10.382739624985362 Kcal/mole
 H     -1.9977471988    -4.0654089284     5.0478286230
 F     -2.6225005393    -3.7124410860     4.4768768162
 H     -2.1315408603    -2.8315325491     3.0961626692
 F     -2.0961501003    -2.5928218028     2.2114855113
 H     -1.6967292420    -5.7919196003     6.9298238860
 F     -1.2716138813    -5.1988724269     6.3744312498
          6
Energy: -9.297913161863079 Kcal/mole
 H     -7.0801647874    -3.8001443533    -2.1889633168
 F     -6.2953006244    -3.9829189569    -1.7513896775
 H     -4.8336880743    -3.9594994056    -0.2609631376
 F     -4.5582685344    -4.1879407245     0.5833399128
 H     -5.3376836086    -4.6200002991     2.2762763948
 F     -5.9157108202    -4.4706977066     2.9723240070
          6
Energy: -14.350684584650253 Kcal/mole
 H     -2.7084910307    -5.5668496789    -4.1182395784
 F     -2.1835372022    -5.0609966531    -3.5619795725
 H     -3.1025253342    -5.2569580225    -6.1000446434
 F     -3.2567604228    -6.0488870505    -5.6642133089
 H     -2.3537063488    -3.8021916845    -4.8401601288
 F     -2.2109897390    -3.5386514286    -5.7068016365
          6
Energy: -13.731331978466528 Kcal/mole
 H      6.4905458097     0.0773844709    -0.6152558561
 F      7.0913330006     0.7625521770    -0.5128402040
 H      7.4640433192     1.0977896186    -2.1611576201
 F      7.4684774459     0.6375576396    -2.9542880407
 H      6.0012218927    -0.6381036151    -2.2769868383
 F      5.4441043799    -0.9443007380    -1.6161143856
          6
Energy: -10.246486844330008 Kcal/mole
 H     -5.6008031879    -4.7382244889     3.7793701973
 F     -5.5110075046    -5.1413720451     2.9606530402
 H     -4.1789246204    -1.8588217690     6.2192207198
 F     -3.8977584168    -2.6414139842     6.6057229717
 H     -4.6403435944    -4.0178386718     5.9014957620
 F     -5.3951914148    -4.4173576534     5.5676120228
          6
Energy: -13.648285824856998 Kcal/mole
 H     -2.1239515380    -1.9205162807     2.6654582735
 F     -2.4294256910    -2.2938467684     3.4453293454
 H     -1.6723960933    -0.5970234364     4.0662492986
 F     -1.2441620006     0.1679302095     3.7972688505
 H     -0.9761158893    -0.2922682343     1.9094298371
 F     -1.0091827717    -1.1508527702     1.5890735104
          6
Energy: -15.616279793640672 Kcal/mole
 H     -5.7052024687    -0.7690146485    -2.0283868131
 F     -5.5364416585    -0.6721764935    -1.1322667538
 H     -6.3477739238    -2.2544583018    -0.7459118408
 F     -6.8531639687    -2.8725451130    -1.1969535201
 H     -6.4834677885    -2.3796306579    -2.6388262464
 F     -6.2101608856    -1.8634174394    -3.3457323575
          6
Energy: -13.507400954689729 Kcal/mole
 H      1.2962836787     2.9045865906     4.0335548795
 F      0.5351271318     2.6101077604     3.6154497137
 H      1.8002620481     3.5603275796     2.0987240310
 F      2.7149370817     3.5749313849     2.0351212660
 H      3.2145070783     3.4997894680     3.9495333377
 F      2.7129701764     3.5445707633     4.7159172960
          6
Energy: -14.39344777932348 Kcal/mole
 H      3.8118693060    -5.2834138947     3.2982702871
 F      3.0604358326    -5.7458037772     3.0484056604
 H      4.1088194220    -7.0638518250     1.7241177155
 F      5.0202636700    -7.0659906757     1.8248838221
 H      5.4973549799    -5.7810760126     2.7904138825
 F      5.4737550632    -5.1565858895     3.4614907262
          6
Energy: -8.595569928438664 Kcal/mole
 H      2.0035610161    -1.2880797699     3.2562662717
 F      1.7853467047    -0.4308638796     3.4980356489
 H      2.2104202253     0.8923907066     1.5686865660
 F      2.0659573537     0.4114309620     0.8014205086
 H      3.2962363179    -0.2055634546    -0.1013436020
 F      4.0542311942    -0.4722943902    -0.5431437553
          6
Energy: -13.75780499390072 Kcal/mole
 H      4.6800859449    -6.7338157307     5.1086200734
 F      4.9213879702    -7.1535054572     4.3298242941
 H      3.5467631759    -5.7877447713     3.2368125345
 F      3.3561370138    -4.9010918847     3.3724492730
 H      3.9518716484    -4.9047642376     5.4674057262
 F      4.1931506590    -5.5035110195     6.1186934738
          6
Energy: -12.208743469259247 Kcal/mole
 H      5.2216427562     3.5839583137    -1.4318955571
 F      4.3940731942     3.4181505236    -1.7903999460
 H      3.7330649964     4.9386246979    -1.4554850447
 F      3.3098545263     5.6554469565    -1.0708452813
 H      5.4521750732     5.6228883186    -0.5319652353
 F      6.2078696412     5.1117752356    -0.4393470060
          6
Energy: -14.8576445336397 Kcal/mole
 H      1.7008068022     2.0436027551    -6.3831277474
 F      0.9432532080     1.5276936858    -6.4120998745
 H      1.2895282899     0.3895007286    -4.7358551893
 F      1.9629759730     0.3399229400    -4.1154526901
 H      3.1623469518     1.4829062585    -4.9005982849
 F      3.5189943075     2.1436044203    -5.4270672799
          6
Energy: -15.5003472680404 Kcal/mole
 H     -5.2517819207    -4.5747657208     3.3748575966
 F     -4.8159420164    -4.8963400705     4.1148052403
 H     -3.2901002400    -4.2620074699     3.3300861189
 F     -2.8683147403    -3.8704996618     2.6161480065
 H     -4.4363104846    -3.2669688611     2.0764700692
 F     -5.3347670651    -3.4298877430     2.1608632606
          6
Energy: -12.19613115086409 Kcal/mole
 H     -5.9806657950     1.8505026937     0.9068546745
 F     -6.8252556009     1.5025535556     0.9874056348
 H     -6.5583375117     0.5403696345     2.1967892461
 F     -6.1827762164     0.1596913771     2.9417233222
 H     -3.6606714659     1.1960480356     0.9740308551
 F     -4.1502932152     1.8816113814     0.6118672988
          6
Energy: -16.136696013663652 Kcal/mole
 H      1.6947319520     2.8917674974     1.3274833829
 F      1.5045737874     2.2066407275     1.9065603913
 H      1.1562603941     1.0021768315     0.6749859446
 F      0.9534518070     0.8301887210    -0.2026117803
 H      1.3589010912     2.3986926629    -0.5902690339
 F      1.7820542172     3.2091027871    -0.5190941611
          6
Energy: -13.66186115480673 Kcal/mole
 H      4.6509354716     4.8842265773     5.2724203452
 F      4.6305092381     4.4651835028     6.0878188187
 H      2.8215181224     3.8288220575     5.5411761280
 F      2.1327982790     3.6105359408     4.9764592533
 H      3.0636619326     4.1234673213     3.5948623344
 F      3.7159310312     4.7177295642     3.3452898806
          6
Energy: -11.518741345602905 Kcal/mole
 H      4.1881224849     4.8919338429     4.4328792038
 F      4.0367285269     5.4812331225     5.1189515240
 H      2.0418907586     6.4742619909     3.2983622159
 F      1.8096055852     5.9018041778     2.6207010540
 H      2.8238181897     4.4322043790     2.3988612702
 F      3.3780540134     3.8070115669     2.7768104723
          6
Energy: -16.45565328035309 Kcal/mole
 H      1.0074162430     5.0244285400     5.5803572818
 F      1.5003963488     5.7976295740     5.5759102363
 H      2.5884060587     4.9510323617     4.3988039918
 F      2.6947644029     4.2664318453     3.7980552626
 H      1.3092830754     3.5719406198     4.4218227207
 F      0.5922471278     3.4940835528     4.9881148071
          6
Energy: -15.190024007801014 Kcal/mole
 H     -0.7150011316     4.1272590185     5.6796140895
 F     -1.1404219619     4.4021735134     4.9152004988
 H      0.2701241866     3.7221907673     3.8713905717
 F      0.9887911385     3.2175826462     3.6072363432
 H      1.3098501792     3.0582492250     5.2960709299
 F      1.0857355916     3.3318048863     6.1421376836
          6
Energy: -14.875370066950268 Kcal/mole
 H      2.6045275238     2.7749812111     2.5469708092
 F      2.3325707584     3.5147921365     3.0155946588
 H      1.0212650502     3.0543411532     3.7735773795
 F      0.3295316935     2.5330566548     4.0746694502
 H      0.8137708833     1.1691139178     2.9312459029
 F      1.5095546053     0.9432305558     2.3782986008
          6
Energy: -15.183731683707776 Kcal/mole
 H      4.9629468166     4.6438337973    -6.4262758600
 F      5.2905173973     5.2627283295    -7.0183536189
 H      3.3347719179     5.8116949943    -7.3750095323
 F      2.5325007986     5.6404375608    -6.9652279530
 H      3.0899280454     4.4212150599    -5.7869237224
 F      3.6244813863     3.7215610184    -5.5307481030
          6
Energy: -16.24306530216694 Kcal/mole
 H      5.5754072204     4.8982636136    -2.7426829315
 F      6.2048401262     4.3722569835    -2.3327802085
 H      5.6022700683     4.6005188024    -0.5822998399
 F      4.9796895938     5.0870385463    -0.1169171033
 H      4.2531758207     5.6504861591    -1.4997070970
 F      4.0883852845     5.7939843652    -2.3902919296
          6
Energy: -15.133003049508261 Kcal/mole
 H      3.7290951244     4.6694026393    -5.2479052870
 F      3.2621163557     3.9625432100    -5.5988605218
 H      4.6640226618     2.8578993830    -5.1264494573
 F      5.4871406425     2.8165522305    -4.7243845338
 H      5.7956092659     4.6997140425    -4.4615056948
 F      5.2282228819     5.3844817999    -4.6852350171
          6
Energy: -15.520884841793134 Kcal/mole
 H      5.5788477397     3.2043606642     1.1207870726
 F      5.5703269867     4.1023910730     0.9354285506
 H      5.1972606377     3.5663355739    -0.8030766623
 F      5.2365014690     2.8443380544    -1.3670524942
 H      4.9584753145     1.7697958907     0.0386009367
 F      5.1365675638     1.6340642047     0.9278416579
          6
Energy: -16.06646392032468 Kcal/mole
 H      4.2870714740     4.4434493703    -5.1412011423
 F      4.6606138725     5.0789784009    -5.6865981791
 H      6.1978367526     4.0646089631    -5.5070440921
 F      6.6489248862     3.3814253290    -5.0939235071
 H      5.2112359173     3.1090218978    -4.2441177788
 F      4.3051060240     3.1291525612    -4.1047894875
          6
Energy: -15.788999881985717 Kcal/mole
 H      1.1697065277    -2.5678184330     0.9588972143
 F      1.1048054165    -3.2307408501     1.5891437651
 H      2.1723530858    -2.0967935442     2.5996217038
 F      2.6685840414    -1.3259018341     2.6188521500
 H      2.4489380733    -1.1326855590     0.9834609274
 F      2.0439999204    -1.2055133837     0.1639426541
          6
Energy: -15.825671054195709 Kcal/mole
 H      5.4528954412    -0.0068909160     4.3847098309
 F      4.6126706010     0.1785609547     4.0676627973
 H      4.6569317306     1.7710467581     5.1777101926
 F      5.3057596571     2.1925300217     5.6699125701
 H      6.7893193401     0.9411464093     5.4223794962
 F      6.9683131273     0.1031701537     5.0958124752
          6
Energy: -15.715824554665005 Kcal/mole
 H      4.3624580968    -6.1063457235    -5.0403985752
 F      4.2544181845    -6.6896906790    -4.3411668252
 H      2.3387596548    -6.8543068821    -4.6347536505
 F      1.6532607347    -6.6503373631    -5.2086671160
 H      2.7616700797    -5.6584655241    -6.0704433605
 F      3.5662524894    -5.4034658146    -6.4289280799
          6
Energy: -15.291615746631578 Kcal/mole
 H     -0.2779706629    -5.4817632131    -5.6302691609
 F      0.2577266287    -5.2835743792    -4.9128860011
 H      0.0903091187    -3.3250069631    -5.7867256293
 F     -0.3897377880    -2.9478428208    -6.4709705980
 H     -1.1025894238    -4.5496383717    -7.0239335138
 F     -1.1611530425    -5.4636585258    -6.9789172883
          6
Energy: -16.065375832339384 Kcal/mole
 H      0.9935876244    -7.2397583252    -3.4822113962
 F      0.8738707626    -7.0937011867    -4.3795542434
 H      2.4319722874    -6.2769659892    -4.4888478084
 F      3.2072581610    -5.9664612691    -4.1101558055
 H      2.6287450561    -6.6789074743    -2.3713633890
 F      2.0397017317    -7.2774717595    -2.0030730708
          6
Energy: -15.083405458140703 Kcal/mole
 H      7.2769140808     0.2250695036    -3.7213097566
 F      7.3432034154     0.2615354189    -2.8074361543
 H      5.6585476864    -1.0288364131    -2.8599356181
 F      5.2802521284    -1.4595799828    -3.5756460678
 H      6.2292691233    -0.8264554374    -4.8738736044
 F      6.6696607402    -0.1458722162    -5.3025351292
          6
Energy: -15.704124308563678 Kcal/mole
 H      6.1018601264     5.0906895656    -1.5053596597
 F      6.3361216614     4.6450330685    -2.2717804447
 H      4.4554694200     4.3075356312    -2.8921207866
 F      3.6518925258     4.4046693490    -2.4611704228
 H      4.3314815057     5.2171706611    -0.9737085349
 F      4.9538674404     5.5840152866    -0.4089521546
          6
Energy: -16.584006545803163 Kcal/mole
 H     -0.0573490883     3.1562569589     1.8178839309
 F     -0.4530642141     2.6039061287     2.4336818681
 H      0.9863312654     2.5218647318     3.2986065779
 F      1.8854410981     2.6504908060     3.4248834237
 H      1.9424209156     3.5491283381     1.9395812967
 F      1.4994193649     3.9783828128     1.2610687897
          6
Energy: -16.24049826018836 Kcal/mole
 H      1.3131436384    -0.2036731243     0.9570400539
 F      1.7348121022    -0.4666347457     0.1863676901
 H      2.9070115691     0.7809559943     0.4767030964
 F      3.4056909365     1.3816330157     0.9577384428
 H      1.9717970860     1.4212842089     2.0939552264
 F      1.2057781616     0.9539499388     2.2829067745
          6
Energy: -15.017509437713386 Kcal/mole
 H      1.4612752215    -2.5277967586     1.9966920319
 F      2.0446860131    -2.6086280044     1.2938498320
 H      3.4989684365    -2.0923696483     2.3504248897
 F      3.7266979119    -1.9465468864     3.2266463275
 H      1.8714555094    -2.2913881046     3.9048114675
 F      0.9682566434    -2.2406817607     3.7546459749
          6
Energy: -16.174869432484343 Kcal/mole
 H     -1.7188756053    -5.2625044119     5.8952698025
 F     -1.7716969207    -5.1268084863     6.8006346596
 H     -0.7949980674    -3.5851319486     6.5851747056
 F     -0.3659410032    -3.0619043804     5.9662789571
 H     -0.9456542055    -4.0471798498     4.7450686614
 F     -1.4570441574    -4.6783256047     4.3195990935
          6
Energy: -16.651118115482745 Kcal/mole
 H     -2.3074862369    -6.9219222237     5.3949076339
 F     -3.1985471142    -7.0369843509     5.2114404167
 H     -3.5864577487    -5.3439856066     5.6470226780
 F     -3.2593792828    -4.5648938362     6.0032875942
 H     -1.6660084563    -5.2056901129     6.0477963442
 F     -0.9981704277    -5.8289511422     5.9676274164
          6
Energy: -16.622048115125892 Kcal/mole
 H     -1.9784634834    -4.0414812577     4.2844147118
 F     -2.5879503879    -3.6108298347     4.8172881162
 H     -2.2007772488    -2.1516120777     4.0597977007
 F     -1.7310835501    -1.6065131271     3.4913401706
 H     -0.9947298624    -3.0151150563     2.9138798050
 F     -0.8493182502    -3.9179583252     2.9818393139
          6
Energy: -16.43881659102101 Kcal/mole
 H     -2.9341999845    -3.8723857718     2.6471767442
 F     -2.4625621472    -4.6404675535     2.8159876653
 H     -1.6988170904    -4.5118365114     1.2156264761
 F     -1.5897087303    -4.1639140634     0.3742381377
 H     -2.7245263786    -2.7857884620     0.7975159143
 F     -3.2976399924    -2.4847457751     1.4469796057
          6
Energy: -16.516353034989265 Kcal/mole
 H     -3.2904752021    -2.8786652609     1.8239677756
 F     -3.5336861598    -3.7048488945     1.5090740893
 H     -2.8660916782    -3.3414597397    -0.0435720408
 F     -2.3276780328    -2.8180437917    -0.5699136520
 H     -2.1478392576    -1.6799115623     0.7522735063
 F     -2.4639758987    -1.4071928452     1.5687115784
          6
Energy: -16.55578067515836 Kcal/mole
 H     -0.8490560306    -2.3528154574     1.6938907563
 F     -0.5696572379    -1.6824872285     2.2537884078
 H     -0.5785820903    -0.4621484891     0.9322488782
 F     -0.7047395303    -0.1914441521     0.0652468815
 H     -1.0984116402    -1.8661690045    -0.2994589547
 F     -1.2334177880    -2.7213987977     0.0026078277
          6
Energy: -16.562198788354635 Kcal/mole
 H     -1.4008936170    -0.9885716500     1.7145260885
 F     -1.2981419136    -1.7336814823     2.2390662920
 H      0.0011383074    -2.3731947034     1.1795010368
 F      0.5655022377    -2.3505396919     0.4570959534
 H     -0.1376543320    -0.7869234613     0.0907236281
 F     -0.7385915335    -0.1062804947     0.2191316963
          6
Energy: -16.64146577040725 Kcal/mole
 H      0.3640229811    -0.4391952724     1.4364576827
 F      0.2846615624    -1.2783427226     1.0753173747
 H      1.1280169117    -2.0097429247     2.4510197392
 F      1.5338744319    -1.9577719733     3.2716705136
 H      1.2513279116    -0.1396310056     3.3114484523
 F      0.8849032604     0.5760527290     2.8705190168
          6
Energy: -16.623766399049885 Kcal/mole
 H      2.5673559439    -1.7396207546     1.5041250305
 F      2.3404919271    -2.5441917260     1.1271803797
 H      2.9242806629    -3.3156576700     2.6041709128
 F      3.3761191169    -3.2394326853     3.3984761206
 H      3.4401219921    -1.5408428227     3.2962629839
 F      3.2031384265    -0.7849364919     2.8343826869
          6
Energy: -16.707417230010492 Kcal/mole
 H      2.2709290185    -1.7699150148     2.1008425817
 F      2.5194659281    -2.3251875858     1.4147006311
 H      3.7153081460    -3.0517580801     2.4673684219
 F      4.1989051497    -3.1408505976     3.2413745338
 H      3.1541574061    -1.8698269123     3.8666639601
 F      2.4914578387    -1.2457963902     3.7557397026
          6
Energy: -16.744902771300644 Kcal/mole
 H      2.0505966407    -1.7351596164     1.8832113756
 F      2.2155684401    -2.3667445204     1.2391820172
 H      3.9399964362    -2.1313049588     1.4833267325
 F      4.6176596230    -1.7240518090     1.9478764900
 H      3.3924731242    -0.8349949708     2.9635250841
 F      2.5120783781    -0.6115289751     3.0894498226
          6
Energy: -16.85699038382097 Kcal/mole
 H      2.0082677683    -1.9078063007     1.8408334014
 F      2.2609790037    -2.5133045205     1.2002103161
 H      3.9240178216    -2.1044760737     1.4946096260
 F      4.5518676220    -1.6319712000     1.9672963854
 H      3.2761836656    -0.8591707565     2.8902143357
 F      2.3806234563    -0.7456901508     3.0514069644
          6
Energy: -16.87614873587097 Kcal/mole
 H      1.9936315424    -1.9116701384     1.8324650566
 F      2.2561853014    -2.5067122827     1.1860291587
 H      3.9217845939    -2.1086842203     1.5018663944
 F      4.5519860895    -1.6317479676     1.9669114306
 H      3.2764854174    -0.8482854193     2.8768915285
 F      2.3841701586    -0.7338071161     3.0545349829
