          6
Energy: -16.870011424340703 Kcal/mole
 H     -0.6963061984     1.4274062701    -0.4433694139
 F     -0.9596461333     2.2555759725    -0.1506647459
 H     -2.5044807855     2.0325036237    -0.9117673093
 F     -3.0883981867     1.5373531629    -1.4165003969
 H     -1.8821780062     0.2623241621    -1.5205004719
 F     -1.0442214482    -0.0454514615    -1.3107578380
          6
Energy: -16.873547692984744 Kcal/mole
 H     -0.7013019542     1.4273294824    -0.4425314829
 F     -0.9580148496     2.2553098278    -0.1434728984
 H     -2.5051800884     2.0469316773    -0.9255276133
 F     -3.0883610903     1.5365877880    -1.4157704446
 H     -1.8781675036     0.2732245529    -1.5201890037
 F     -1.0444341961    -0.0460297021    -1.3107743606
          6
Energy: -16.87478617260598 Kcal/mole
 H     -0.6986166922     1.4108394957    -0.4144072361
 F     -0.9499213379     2.2457255859    -0.1303294448
 H     -2.4930812844     2.0491394412    -0.9371884359
 F     -3.0711862494     1.5474544515    -1.4421595444
 H     -1.8863192811     0.2716990829    -1.5112841201
 F     -1.0620685071    -0.0637767171    -1.2900248851
          6
Energy: -16.873526098327318 Kcal/mole
 H     -0.6991082855     1.4092274520    -0.4471854043
 F     -0.9406175242     2.2446489028    -0.1562673966
 H     -2.5032266113     2.0409386792    -0.9213709847
 F     -3.0872080341     1.5350243543    -1.4152387743
 H     -1.8927628676     0.2519155658    -1.5055981827
 F     -1.0550027102    -0.0620023866    -1.3043460082
          6
Energy: -16.87165368731729 Kcal/mole
 H     -0.6830953393     1.4189592755    -0.4499519294
 F     -0.9301202731     2.2568634445    -0.1710535867
 H     -2.4907304132     2.0520196256    -0.9463080489
 F     -3.0771334365     1.5403085494    -1.4312536837
 H     -1.8862368661     0.2587302118    -1.5212599163
 F     -1.0553488995    -0.0623638878    -1.3035151894
          6
Energy: -16.872893297798157 Kcal/mole
 H     -0.6739882714     1.4397185231    -0.4739154779
 F     -0.9273629214     2.2694078787    -0.1767524586
 H     -2.4915908099     2.0468366504    -0.9098020098
 F     -3.0909577321     1.5335252226    -1.3768776681
 H     -1.8808647409     0.2628573361    -1.5075647829
 F     -1.0345365808    -0.0415361784    -1.3287849360
          6
Energy: -16.875455622489824 Kcal/mole
 H     -0.6926186209     1.4460970528    -0.4602053820
 F     -0.9444984474     2.2836987458    -0.1847621811
 H     -2.5041023603     2.0600958125    -0.9440764748
 F     -3.0777602059     1.5414848410    -1.4368729200
 H     -1.8750618109     0.2791256333    -1.5126415591
 F     -1.0439186944    -0.0427444011    -1.2970266226
          6
Energy: -16.874276936067247 Kcal/mole
 H     -0.6876181362     1.4548116016    -0.4811050262
 F     -0.9447637115     2.2832364591    -0.1836535032
 H     -2.5333921887     2.0382692312    -0.8964325359
 F     -3.1143599150     1.5034647169    -1.3626402496
 H     -1.8904970207     0.2608562078    -1.4756827247
 F     -1.0430998922    -0.0417752502    -1.2989872033
          6
Energy: -16.87266399994911 Kcal/mole
 H     -0.6868160863     1.4515982017    -0.4712715137
 F     -0.9448062584     2.2834069226    -0.1841751484
 H     -2.4974644256     2.0456314525    -0.9276465201
 F     -3.0865227214     1.5234068146    -1.3979450974
 H     -1.8854793039     0.2644224118    -1.5008480695
 F     -1.0412055163    -0.0420822373    -1.3160625950
          6
Energy: -16.87424473174724 Kcal/mole
 H     -0.6757078602     1.4477730978    -0.4707199701
 F     -0.9327394843     2.2851347991    -0.1993362464
 H     -2.4838453804     2.0501297930    -0.9396667314
 F     -3.0749632591     1.5372207148    -1.4175714614
 H     -1.8778735543     0.2634573663    -1.5027991301
 F     -1.0385536218    -0.0493644106    -1.3063975343
          6
Energy: -16.869421659851184 Kcal/mole
 H     -0.6734762795     1.4478297274    -0.4856103312
 F     -0.9330498392     2.2771450436    -0.1927850021
 H     -2.4894384714     2.0501641784    -0.9328709181
 F     -3.0746665586     1.5372188908    -1.4179319636
 H     -1.8806216974     0.2906554731    -1.5163159783
 F     -1.0398017972    -0.0301741840    -1.3403068123
          6
Energy: -16.87594224307304 Kcal/mole
 H     -0.6816511356     1.4437467792    -0.4806666598
 F     -0.9362602353     2.2705204323    -0.1765145054
 H     -2.5021239881     2.0453173323    -0.9091711085
 F     -3.0896360049     1.5392649499    -1.3986908898
 H     -1.8812552996     0.2833972468    -1.5260757339
 F     -1.0397681860    -0.0297891518    -1.3397890798
          6
Energy: -16.871865921568542 Kcal/mole
 H     -0.6882609426     1.4366886660    -0.4665047412
 F     -0.9359096003     2.2708948488    -0.1772657625
 H     -2.5029717053     2.0599429890    -0.9237322114
 F     -3.0895910355     1.5384890926    -1.3979184570
 H     -1.8811865604     0.2871285040    -1.5199684384
 F     -1.0397718325    -0.0299870864    -1.3401130577
          6
Energy: -16.86783446716646 Kcal/mole
 H     -0.6874239100     1.4468639431    -0.4936080303
 F     -0.9359540030     2.2703550739    -0.1758279956
 H     -2.4975674023     2.0435649847    -0.9128686434
 F     -3.0898777212     1.5393579079    -1.3984947441
 H     -1.8771503342     0.2921586917    -1.5474628267
 F     -1.0342648651    -0.0226069502    -1.3703874850
          6
Energy: -16.87219209011971 Kcal/mole
 H     -0.6708474601     1.4370268864    -0.5068932593
 F     -0.9173825213     2.2669008217    -0.2045379796
 H     -2.4988778951     2.0532936415    -0.9164214016
 F     -3.0923504561     1.5470888871    -1.3985376385
 H     -1.8806726698     0.3050584887    -1.5527331625
 F     -1.0418878087    -0.0222581292    -1.3789724408
          6
Energy: -16.871100330217473 Kcal/mole
 H     -0.6775411528     1.4320821569    -0.4710289739
 F     -0.9417823695     2.2518436838    -0.1562963596
 H     -2.4991436583     2.0679528746    -0.9392875091
 F     -3.0786424683     1.5642980130    -1.4406874588
 H     -1.8795361283     0.2952527255    -1.5671431757
 F     -1.0442031903    -0.0324477978    -1.3781451607
          6
Energy: -16.875955365974846 Kcal/mole
 H     -0.6772877785     1.4304161531    -0.4723359559
 F     -0.9322162474     2.2500552280    -0.1497026305
 H     -2.4824061331     2.0745330154    -0.9410274625
 F     -3.0607465432     1.5864110697    -1.4588578752
 H     -1.8649151597     0.3203484985    -1.5852760419
 F     -1.0333759556    -0.0149161613    -1.3928464184
          6
Energy: -16.872690714161592 Kcal/mole
 H     -0.6780170690     1.4294155066    -0.4703612296
 F     -0.9321775603     2.2501083100    -0.1498073852
 H     -2.4895674026     2.0696077911    -0.9208759473
 F     -3.0649905857     1.5803776345    -1.4409057678
 H     -1.8568172428     0.3254197563    -1.5999823247
 F     -1.0288107197    -0.0108405339    -1.3944994421
          6
Energy: -16.872941372794514 Kcal/mole
 H     -0.6881078397     1.4105187114    -0.4483828522
 F     -0.9410069623     2.2365270127    -0.1407445582
 H     -2.4843146068     2.0629493244    -0.9307967149
 F     -3.0613296566     1.5838878519    -1.4584734511
 H     -1.8710313127     0.3010195210    -1.5867725057
 F     -1.0435701820    -0.0353312876    -1.3792509147
          6
Energy: -16.875561018190353 Kcal/mole
 H     -0.6903061587     1.4032292502    -0.4407194003
 F     -0.9515270410     2.2162696429    -0.1066266430
 H     -2.4930800985     2.0631144147    -0.9215240095
 F     -3.0608646675     1.5838790943    -1.4589653467
 H     -1.8628469242     0.3154923150    -1.5927859147
 F     -1.0335004779    -0.0222806059    -1.3953449719
          6
Energy: -16.87537263155599 Kcal/mole
 H     -0.6915998099     1.4057701591    -0.4493917416
 F     -0.9488164385     2.2184277849    -0.1112849697
 H     -2.4924094149     2.0620926584    -0.9213229641
 F     -3.0609002457     1.5839332961    -1.4589760117
 H     -1.8648010047     0.3088744305    -1.5957490246
 F     -1.0333968185    -0.0219295424    -1.3951877857
          6
Energy: -16.873455053532666 Kcal/mole
 H     -0.6802958572     1.4091483753    -0.4449850272
 F     -0.9476903491     2.2194814003    -0.1092029934
 H     -2.4915627334     2.0413021843    -0.9104450834
 F     -3.0658241702     1.5669206271    -1.4453048223
 H     -1.8663602243     0.3091013173    -1.5887771044
 F     -1.0333141055    -0.0219415782    -1.3955576300
          6
Energy: -16.873614835252624 Kcal/mole
 H     -0.7138920397     1.3986793386    -0.4210663942
 F     -0.9783668996     2.2113156434    -0.0885543124
 H     -2.4960741337     2.0554194988    -0.9288159821
 F     -3.0644137665     1.5726849666    -1.4625260470
 H     -1.8569914321     0.3127258383    -1.6037590710
 F     -1.0282025726    -0.0184166768    -1.3931820991
          6
Energy: -16.8724845459235 Kcal/mole
 H     -0.7118878221     1.4008325929    -0.4231964395
 F     -0.9720927878     2.2178494935    -0.0981337379
 H     -2.4940716285     2.0520189055    -0.9278888344
 F     -3.0645199947     1.5728653603    -1.4625752300
 H     -1.8669361060     0.3032199154    -1.5909838049
 F     -1.0361430066    -0.0193337282    -1.3750417458
          6
Energy: -16.874657399753914 Kcal/mole
 H     -0.7075182442     1.3864049651    -0.4226867418
 F     -0.9728835920     2.1908372683    -0.0714618826
 H     -2.5064377041     2.0419620787    -0.9063887264
 F     -3.0638640030     1.5733988517    -1.4637157611
 H     -1.8636427868     0.3288009699    -1.6239355807
 F     -1.0356544511    -0.0109920751    -1.4242733595
          6
Energy: -16.873518784175246 Kcal/mole
 H     -0.7145571564     1.3904173690    -0.4384691385
 F     -0.9739473137     2.1995310175    -0.0935911164
 H     -2.5154408446     2.0409237682    -0.9067267477
 F     -3.0733571910     1.5658852209    -1.4580494562
 H     -1.8758359265     0.3177032560    -1.6100915199
 F     -1.0482099258    -0.0232808781    -1.4109583402
          6
Energy: -16.874690399707674 Kcal/mole
 H     -0.7030324824     1.3964112564    -0.4435660783
 F     -0.9745586710     2.1992130556    -0.0933207355
 H     -2.5167126300     2.0427310402    -0.8999582311
 F     -3.0862293339     1.5650701788    -1.4369683106
 H     -1.8763761615     0.3119340129    -1.6066373832
 F     -1.0421164575    -0.0205780805    -1.4213390992
          6
Energy: -16.87459938414895 Kcal/mole
 H     -0.7230195131     1.3853115585    -0.4326544382
 F     -0.9734984052     2.1998018689    -0.0938995728
 H     -2.5180308354     2.0490128392    -0.9042058634
 F     -3.0861594061     1.5647369439    -1.4367429836
 H     -1.8806685220     0.3040274697    -1.5901266524
 F     -1.0500959874    -0.0298956901    -1.3912961011
          6
Energy: -16.876254315894812 Kcal/mole
 H     -0.7139953757     1.3903627606    -0.4379175444
 F     -0.9739771148     2.1995339143    -0.0936203771
 H     -2.5156964216     2.0379873122    -0.8967419735
 F     -3.0851599723     1.5578744332    -1.4316175551
 H     -1.8823961118     0.3037724654    -1.5832032671
 F     -1.0500043427    -0.0298821627    -1.3916633707
          6
Energy: -16.875263380689375 Kcal/mole
 H     -0.7194946230     1.3926065109    -0.4250505623
 F     -0.9782121813     2.2070573904    -0.0924487136
 H     -2.5165773446     2.0380762479    -0.8958854092
 F     -3.0851132413     1.5578697153    -1.4316629938
 H     -1.8835166015     0.2913164016    -1.5805639665
 F     -1.0504588638    -0.0341893704    -1.3782034024
          6
Energy: -16.875071492784457 Kcal/mole
 H     -0.7169004839     1.3949515724    -0.4287342599
 F     -0.9783497944     2.2069329903    -0.0922533019
 H     -2.5156312114     2.0394715605    -0.9031904824
 F     -3.0883062333     1.5560270375    -1.4315972503
 H     -1.8854884453     0.2877284687    -1.5781591648
 F     -1.0503542620    -0.0339990389    -1.3783309716
          6
Energy: -16.874596312240385 Kcal/mole
 H     -0.7272729558     1.3761735393    -0.3962899452
 F     -1.0008556585     2.1762084831    -0.0413454516
 H     -2.5264345381     2.0197635945    -0.8747598145
 F     -3.0877331418     1.5570724996    -1.4331054316
 H     -1.8632044250     0.3116836779    -1.6190614927
 F     -1.0337766833    -0.0184672988    -1.4094452863
          6
Energy: -16.875212935023853 Kcal/mole
 H     -0.7273689415     1.3686073114    -0.3921562683
 F     -0.9992138141     2.1635603725    -0.0246797441
 H     -2.5244989647     2.0280559365    -0.8751919434
 F     -3.0795992243     1.5614132864    -1.4364381807
 H     -1.8700327757     0.3145744758    -1.5995715537
 F     -1.0420020425    -0.0239730030    -1.3979786237
          6
Energy: -16.874982082248778 Kcal/mole
 H     -0.7224915256     1.3648142804    -0.3800790867
 F     -0.9994725497     2.1637615841    -0.0253204107
 H     -2.5194604213     2.0162450592    -0.8670107781
 F     -3.0830753499     1.5577905537    -1.4265165231
 H     -1.8680414875     0.3129699296    -1.5953749348
 F     -1.0380400577    -0.0231268066    -1.3978259271
          6
Energy: -16.875675061236052 Kcal/mole
 H     -0.7251707789     1.3689933652    -0.3913572422
 F     -0.9993304215     2.1635398933    -0.0247221306
 H     -2.5273526831     2.0239144066    -0.8654609826
 F     -3.0826566837     1.5573837126    -1.4265987361
 H     -1.8667798810     0.3136254180    -1.5995094179
 F     -1.0381069830    -0.0231615787    -1.3976066023
          6
Energy: -16.875371938537626 Kcal/mole
 H     -0.7309636804     1.3650535794    -0.3741600298
 F     -1.0060104425     2.1633319660    -0.0164032743
 H     -2.5248912279     2.0219025676    -0.8662342460
 F     -3.0827872582     1.5574904360    -1.4265577163
 H     -1.8639277370     0.3169843983    -1.6054720260
 F     -1.0374470813    -0.0231164100    -1.4001669703
          6
Energy: -16.87612290153868 Kcal/mole
 H     -0.7374785785     1.3655909758    -0.3802503796
 F     -1.0056648422     2.1633034584    -0.0160801953
 H     -2.5248786013     2.0360047293    -0.8706284591
 F     -3.0813972949     1.5782090512    -1.4377255061
 H     -1.8749020389     0.3161744190    -1.6028584301
 F     -1.0470330534    -0.0206480665    -1.3977424719
          6
Energy: -16.872375729780742 Kcal/mole
 H     -0.7419449021     1.3634660036    -0.3788465620
 F     -1.0054279141     2.1634161832    -0.0161546646
 H     -2.5236762851     2.0347416160    -0.8707915331
 F     -3.0814610750     1.5782760564    -1.4377168554
 H     -1.8641149664     0.3375192105    -1.6245616663
 F     -1.0437234061    -0.0115074839    -1.4100224988
          6
Energy: -16.87462136207762 Kcal/mole
 H     -0.7442404472     1.3597129828    -0.3531970944
 F     -1.0219003317     2.1540116346     0.0113349894
 H     -2.5332438230     2.0257871132    -0.8454448459
 F     -3.0879183980     1.5697854015    -1.4157847050
 H     -1.8857523308     0.3150014801    -1.5862905124
 F     -1.0572745101    -0.0237881648    -1.3869539197
          6
Energy: -16.87562835100391 Kcal/mole
 H     -0.7528823387     1.3539507019    -0.3470127068
 F     -1.0214418993     2.1543173103     0.0110069220
 H     -2.5300061235     2.0228065549    -0.8462290285
 F     -3.0880901505     1.5699435132    -1.4157431059
 H     -1.8837401416     0.3110726556    -1.5832427741
 F     -1.0607907549    -0.0291034551    -1.3643283603
          6
Energy: -16.875795077571524 Kcal/mole
 H     -0.7439378573     1.3492529475    -0.3405718987
 F     -1.0122002303     2.1487602902     0.0195840511
 H     -2.5315932799     2.0235871289    -0.8452981120
 F     -3.0880059555     1.5699021056    -1.4157924889
 H     -1.8847179839     0.3146708650    -1.5737241441
 F     -1.0607388826    -0.0292943318    -1.3648333016
          6
Energy: -16.87647273101112 Kcal/mole
 H     -0.7458972332     1.3605218445    -0.3466901523
 F     -1.0161470567     2.1590215681     0.0142145779
 H     -2.5339750299     2.0249413276    -0.8440604184
 F     -3.0878796092     1.5698302685    -1.4158581457
 H     -1.8793642203     0.3148740577    -1.5726750336
 F     -1.0550498295    -0.0257386915    -1.3596545178
          6
Energy: -16.875351409813163 Kcal/mole
 H     -0.7538663005     1.3545294103    -0.3391717553
 F     -1.0157243161     2.1593394529     0.0138157443
 H     -2.5331887504     2.0272160755    -0.8466441144
 F     -3.0879213195     1.5697095984    -1.4157210866
 H     -1.8850902722     0.3107128478    -1.5560825038
 F     -1.0632264635    -0.0334991512    -1.3394099869
          6
Energy: -16.87523580613839 Kcal/mole
 H     -0.7641668438     1.3522788972    -0.3209130254
 F     -1.0328279966     2.1565278180     0.0282199841
 H     -2.5349058521     2.0279813228    -0.8455898096
 F     -3.0878302312     1.5696690038    -1.4157770150
 H     -1.8883111352     0.3040832486    -1.5542572565
 F     -1.0630556041    -0.0331474662    -1.3395068121
          6
Energy: -16.874229666900703 Kcal/mole
 H     -0.7580030090     1.3548166653    -0.3219471759
 F     -1.0331549738     2.1563931953     0.0282748434
 H     -2.5351762507     2.0277641460    -0.8451533193
 F     -3.0878158872     1.5696805245    -1.4158001698
 H     -1.8817028061     0.3105881703    -1.5687139734
 F     -1.0634061607    -0.0334925373    -1.3387399166
          6
Energy: -16.875952569685012 Kcal/mole
 H     -0.7640914128     1.3540437626    -0.3232701045
 F     -1.0330917004     2.1551204195     0.0328254375
 H     -2.5370364872     2.0227264144    -0.8393652930
 F     -3.0877172059     1.5699477645    -1.4161072112
 H     -1.8810202524     0.3184460250    -1.5715035657
 F     -1.0588847910    -0.0247171271    -1.3541988623
          6
Energy: -16.875706831453556 Kcal/mole
 H     -0.7647570690     1.3531689974    -0.3218000882
 F     -1.0330563889     2.1551668238     0.0327474565
 H     -2.5370398337     2.0231328903    -0.8396814490
 F     -3.0877170284     1.5699262019    -1.4160904399
 H     -1.8805537605     0.3190693128    -1.5722812414
 F     -1.0589095373    -0.0247501911    -1.3541576084
          6
Energy: -16.87447571738204 Kcal/mole
 H     -0.7562120184     1.3536087804    -0.3268692440
 F     -1.0259796523     2.1550581855     0.0278042321
 H     -2.5348900822     2.0194282769    -0.8388398519
 F     -3.0878310677     1.5701227231    -1.4161350847
 H     -1.8827991497     0.3128805017    -1.5801295526
 F     -1.0610439584    -0.0301961391    -1.3612555609
          6
Energy: -16.872441087326195 Kcal/mole
 H     -0.7488716380     1.3580502477    -0.3371028979
 F     -1.0237598460     2.1574163841     0.0183394363
 H     -2.5300917850     2.0279023112    -0.8327722624
 F     -3.0965418292     1.5734792583    -1.3927035408
 H     -1.8946930141     0.3129183819    -1.5636411953
 F     -1.0694118722    -0.0267632282    -1.3528891120
          6
Energy: -16.87495059821555 Kcal/mole
 H     -0.7569988265     1.3573619144    -0.3417102115
 F     -1.0233287175     2.1574528986     0.0185838437
 H     -2.5331438905     2.0292854465    -0.8308212721
 F     -3.0963799221     1.5734058862    -1.3928070363
 H     -1.8961851078     0.3107042408    -1.5613359017
 F     -1.0693327201    -0.0266457731    -1.3530114025
          6
Energy: -16.87657900430304 Kcal/mole
 H     -0.7365945484     1.3662195562    -0.3564021123
 F     -0.9988131137     2.1709192850    -0.0034307673
 H     -2.5299645138     2.0359473023    -0.8395339516
 F     -3.0965485807     1.5730524901    -1.3923448488
 H     -1.8965974751     0.3162577431    -1.5538399106
 F     -1.0713955116    -0.0290886600    -1.3521803429
          6
Energy: -16.875875538789842 Kcal/mole
 H     -0.7417769751     1.3630251316    -0.3528958473
 F     -0.9985381979     2.1710887419    -0.0036167666
 H     -2.5330498417     2.0352073578    -0.8357752072
 F     -3.0963849112     1.5730917425    -1.3925442415
 H     -1.8955538222     0.3144352807    -1.5610831053
 F     -1.0714508749    -0.0289919826    -1.3517961082
          6
Energy: -16.875461187208543 Kcal/mole
 H     -0.7421945932     1.3640759678    -0.3556208534
 F     -0.9985160443     2.1710329974    -0.0034722113
 H     -2.5371945110     2.0436458479    -0.8386771141
 F     -3.0961650460     1.5726441001    -1.3923903020
 H     -1.8984756167     0.3112309599    -1.5474487779
 F     -1.0728150593    -0.0335567636    -1.3467124591
          6
Energy: -16.875822156997344 Kcal/mole
 H     -0.7383807611     1.3655334770    -0.3561594061
 F     -0.9987183593     2.1709556799    -0.0034436424
 H     -2.5333513933     2.0418674428    -0.8410664473
 F     -3.0963689146     1.5727384404    -1.3922635534
 H     -1.8992651187     0.3076008060    -1.5503779318
 F     -1.0727731780    -0.0333641923    -1.3465570743
          6
Energy: -16.876277594859914 Kcal/mole
 H     -0.7371602856     1.3639438653    -0.3515915783
 F     -0.9987831027     2.1710400052    -0.0036859551
 H     -2.5332741273     2.0383894825    -0.8382046296
 F     -3.0963730133     1.5729229381    -1.3924153662
 H     -1.8961835017     0.3136629611    -1.5526004639
 F     -1.0729366507    -0.0336857757    -1.3464391741
          6
Energy: -16.876319403642867 Kcal/mole
 H     -0.7403488240     1.3616142920    -0.3485474050
 F     -0.9986139581     2.1711635836    -0.0038474414
 H     -2.5291658126     2.0364111274    -0.8407431402
 F     -3.0965909499     1.5730278853    -1.3922807041
 H     -1.8981499245     0.3108186228    -1.5494850385
 F     -1.0728323365    -0.0335348901    -1.3466044402
          6
Energy: -16.876475870284878 Kcal/mole
 H     -0.7487229662     1.3629326397    -0.3458275775
 F     -1.0123531695     2.1660617577     0.0096604473
 H     -2.5345978862     2.0320358281    -0.8316047781
 F     -3.0963027910     1.5732599848    -1.3927654731
 H     -1.8960896500     0.3131939811    -1.5537613641
 F     -1.0729416293    -0.0336608974    -1.3463775910
          6
Energy: -16.87673467173687 Kcal/mole
 H     -0.7489137432     1.3615117386    -0.3427417678
 F     -1.0123430492     2.1661371332     0.0094967523
 H     -2.5311712511     2.0333018355    -0.8361012496
 F     -3.0964845661     1.5731928260    -1.3925269457
 H     -1.8985221139     0.3071482444    -1.5541099504
 F     -1.0728125927    -0.0333401850    -1.3463590993
          6
Energy: -16.874745723621743 Kcal/mole
 H     -0.7434556992     1.3657550669    -0.3482363939
 F     -1.0126325858     2.1659120345     0.0097882295
 H     -2.5360138174     2.0299261850    -0.8284779696
 F     -3.0962276791     1.5733718965    -1.3929313431
 H     -1.8960608429     0.3099488201    -1.5592014472
 F     -1.0729431575    -0.0334887491    -1.3460890072
          6
Energy: -16.876589239643465 Kcal/mole
 H     -0.7459958367     1.3636065247    -0.3453155205
 F     -1.0124978374     2.1660260097     0.0096332839
 H     -2.5320021707     2.0331774553    -0.8351557217
 F     -3.0964404877     1.5731994241    -1.3925771038
 H     -1.8986016519     0.3097835345    -1.5494009614
 F     -1.0728083734    -0.0334799810    -1.3466089003
          6
Energy: -16.875876851506632 Kcal/mole
 H     -0.7539672147     1.3446086856    -0.3269627506
 F     -1.0142061908     2.1481073510     0.0301850759
 H     -2.5382312563     2.0291043647    -0.8256252694
 F     -3.0961100491     1.5734154922    -1.3930826722
 H     -1.8959546015     0.3152635580    -1.5508028333
 F     -1.0729487933    -0.0337706836    -1.3465345342
          6
Energy: -16.876054177194476 Kcal/mole
 H     -0.7571154759     1.3464203930    -0.3332548580
 F     -1.0140391828     2.1480112441     0.0305188576
 H     -2.5394260976     2.0298609273    -0.8250602961
 F     -3.0960466655     1.5733753583    -1.3931126428
 H     -1.8984295565     0.3146348954    -1.5550384707
 F     -1.0765293191    -0.0344965268    -1.3465288794
          6
Energy: -16.8759233608651 Kcal/mole
 H     -0.7512104619     1.3451565973    -0.3261741272
 F     -1.0143524302     2.1480782856     0.0301432412
 H     -2.5405176348     2.0297622791    -0.8239137838
 F     -3.0959887620     1.5733805913    -1.3931734626
 H     -1.9000337397     0.3129753710    -1.5514478459
 F     -1.0764442208    -0.0344084928    -1.3467193538
          6
Energy: -16.876830690391387 Kcal/mole
 H     -0.7492083242     1.3532418361    -0.3413526291
 F     -1.0111874999     2.1565384218     0.0149765823
 H     -2.5328314866     2.0318278193    -0.8332082141
 F     -3.0963964944     1.5732710192    -1.3926804145
 H     -1.9010353980     0.3115467580    -1.5498278326
 F     -1.0763910852    -0.0343327082    -1.3468052917
          6
Energy: -16.87684305701987 Kcal/mole
 H     -0.7508118822     1.3534825060    -0.3430659273
 F     -1.0111024349     2.1565256548     0.0150674688
 H     -2.5360796808     2.0302482815    -0.8286732629
 F     -3.0962241852     1.5733548100    -1.3929209832
 H     -1.8995078521     0.3117789895    -1.5555458475
 F     -1.0764721180    -0.0343450276    -1.3465019642
          6
Energy: -16.876486468921485 Kcal/mole
 H     -0.7520917616     1.3533971574    -0.3438015488
 F     -1.0110345402     2.1565301823     0.0151064918
 H     -2.5356943005     2.0335582607    -0.8317552863
 F     -3.0962446287     1.5731792233    -1.3927574890
 H     -1.8988491714     0.3131120091    -1.5559260904
 F     -1.0765070595    -0.0344157412    -1.3464817932
          6
Energy: -16.87654921702375 Kcal/mole
 H     -0.7520735167     1.3525602833    -0.3419094219
 F     -1.0110355081     2.1565745766     0.0150061188
 H     -2.5357770781     2.0321456190    -0.8305166289
 F     -3.0962402376     1.5732541607    -1.3928231969
 H     -1.8978571059     0.3154323888    -1.5559550593
 F     -1.0765596862    -0.0345388320    -1.3464802565
          6
Energy: -16.876763608949886 Kcal/mole
 H     -0.7505932658     1.3527342905    -0.3412234282
 F     -1.0111140320     2.1565653459     0.0149697285
 H     -2.5320759799     2.0308299234    -0.8331528255
 F     -3.0964365723     1.5733239553    -1.3926833528
 H     -1.9019523551     0.3084621204    -1.5513257718
 F     -1.0763424427    -0.0341690753    -1.3467258295
          6
Energy: -16.87664396278018 Kcal/mole
 H     -0.7511257018     1.3537987002    -0.3440014351
 F     -1.0110857875     2.1565088814     0.0151170953
 H     -2.5372725968     2.0326530665    -0.8294435482
 F     -3.0961609038     1.5732272417    -1.3928801214
 H     -1.9006738504     0.3102561264    -1.5534563606
 F     -1.0764102644    -0.0342642432    -1.3466128067
          6
Energy: -16.87655114808871 Kcal/mole
 H     -0.7525986145     1.3501628067    -0.3368429229
 F     -1.0110076528     2.1567017572     0.0147373528
 H     -2.5353312120     2.0340710017    -0.8325398046
 F     -3.0962638897     1.5731520235    -1.3927158721
 H     -1.8990643299     0.3140633605    -1.5534853826
 F     -1.0764956458    -0.0344662082    -1.3466112671
          6
Energy: -16.876704784395315 Kcal/mole
 H     -0.7503865369     1.3517450289    -0.3388297522
 F     -1.0111249984     2.1566178239     0.0148427495
 H     -2.5364695213     2.0305627285    -0.8285411277
 F     -3.0962035051     1.5733381293    -1.3929279927
 H     -1.9003911557     0.3113624812    -1.5527354923
 F     -1.0764252607    -0.0343229328    -1.3466510471
          6
Energy: -16.87636554754215 Kcal/mole
 H     -0.7505871791     1.3514825142    -0.3383797881
 F     -1.0111143548     2.1566317497     0.0148188799
 H     -2.5308574993     2.0305223316    -0.8341327085
 F     -3.0965012099     1.5733402723    -1.3926313722
 H     -1.9019394588     0.3074438380    -1.5530725465
 F     -1.0763431268    -0.0341150578    -1.3466331671
          6
Energy: -16.87693518438425 Kcal/mole
 H     -0.7506917753     1.3522593835    -0.3402219119
 F     -1.0111088063     2.1565905386     0.0149166003
 H     -2.5328244812     2.0300909329    -0.8317963922
 F     -3.0963968660     1.5733631570    -1.3927553084
 H     -1.8993826899     0.3130255629    -1.5539643646
 F     -1.0764787575    -0.0344111554    -1.3465858583
          6
Energy: -16.876780696113997 Kcal/mole
 H     -0.7510678813     1.3528802829    -0.3418989893
 F     -1.0110888547     2.1565576013     0.0150055654
 H     -2.5301923476     2.0384111933    -0.8353332323
 F     -3.0915533336     1.5838423818    -1.4002491897
 H     -1.8982074374     0.3134771976    -1.5578293054
 F     -1.0765411020    -0.0344351136    -1.3463808321
          6
Energy: -16.875826018070654 Kcal/mole
 H     -0.7548498602     1.3490523288    -0.3359394337
 F     -1.0108882295     2.1567606655     0.0146894248
 H     -2.5278610624     2.0378367203    -0.8371961957
 F     -3.0916770029     1.5838728563    -1.4001503638
 H     -1.8981880250     0.3106117873    -1.5625954908
 F     -1.0763538066    -0.0341109538    -1.3466238508
          6
Energy: -16.876309207734494 Kcal/mole
 H     -0.7525101350     1.3510519219    -0.3388105625
 F     -1.0110123465     2.1566545917     0.0148417315
 H     -2.5291975054     2.0421139219    -0.8393298632
 F     -3.0916061077     1.5836459606    -1.4000371777
 H     -1.8996609357     0.3116884191    -1.5551281203
 F     -1.0762756721    -0.0341680666    -1.3470199776
          6
Energy: -16.876622880205957 Kcal/mole
 H     -0.7540975557     1.3508499974    -0.3395063806
 F     -1.0109281375     2.1566653033     0.0148786431
 H     -2.5310640873     2.0387287833    -0.8347236808
 F     -3.0915070898     1.5838255344    -1.4002815250
 H     -1.8981055434     0.3127771544    -1.5594170334
 F     -1.0763581821    -0.0342258215    -1.3467924606
          6
Energy: -16.876565294998386 Kcal/mole
 H     -0.7543382109     1.3513982786    -0.3409239748
 F     -1.0109153713     2.1566362182     0.0149538432
 H     -2.5303475420     2.0400511983    -0.8365024746
 F     -3.0915451009     1.5837553833    -1.4001871641
 H     -1.8970113925     0.3149203591    -1.5601323736
 F     -1.0764162243    -0.0343395136    -1.3467545135
          6
Energy: -16.876766727149004 Kcal/mole
 H     -0.7522790232     1.3526656623    -0.3422956139
 F     -1.0110246064     2.1565689865     0.0150266054
 H     -2.5302359344     2.0376476078    -0.8346764355
 F     -3.0915510214     1.5838828882    -1.4002840312
 H     -1.8978135241     0.3143327539    -1.5579956817
 F     -1.0763736730    -0.0343083425    -1.3468678600
          6
Energy: -16.876859922704455 Kcal/mole
 H     -0.7514797417     1.3512512842    -0.3385097593
 F     -1.0110670065     2.1566440160     0.0148257746
 H     -2.5288627697     2.0386780477    -0.8368730959
 F     -3.0916238646     1.5838282258    -1.4001675035
 H     -1.8980327638     0.3145522307    -1.5567763045
 F     -1.0763620429    -0.0343199852    -1.3469325452
          6
Energy: -16.87679470173981 Kcal/mole
 H     -0.7528520199     1.3517743447    -0.3406998422
 F     -1.0109942103     2.1566162688     0.0149419534
 H     -2.5287992261     2.0398212487    -0.8378618322
 F     -3.0916272355     1.5837675816    -1.4001150533
 H     -1.8983115455     0.3132670279    -1.5578143475
 F     -1.0763472541    -0.0342518082    -1.3468774794
          6
Energy: -16.876807933713167 Kcal/mole
 H     -0.7512312039     1.3522614295    -0.3406214315
 F     -1.0110801908     2.1565904301     0.0149377939
 H     -2.5293925478     2.0384943133    -0.8361961795
 F     -3.0915957611     1.5838379725    -1.4002034123
 H     -1.8972851017     0.3147753159    -1.5593152844
 F     -1.0764017046    -0.0343318194    -1.3467978582
          6
Energy: -16.876774224008614 Kcal/mole
 H     -0.7521453796     1.3520834195    -0.3408854540
 F     -1.0110316959     2.1565998731     0.0149517997
 H     -2.5297220040     2.0362826049    -0.8340936739
 F     -3.0915782842     1.5839552985    -1.4003149454
 H     -1.8984141645     0.3128749868    -1.5580597968
 F     -1.0763418104    -0.0342310113    -1.3468644589
          6
Energy: -16.87685879325062 Kcal/mole
 H     -0.7520371806     1.3523160995    -0.3413324105
 F     -1.0110374356     2.1565875300     0.0149755097
 H     -2.5298067481     2.0383959174    -0.8357043803
 F     -3.0915737888     1.5838431921    -1.4002295011
 H     -1.8977677737     0.3145633629    -1.5577926320
 F     -1.0763761000    -0.0343205757    -1.3468786314
          6
Energy: -16.876926495285318 Kcal/mole
 H     -0.7517801388     1.3517743858    -0.3399193086
 F     -1.0110510711     2.1566162666     0.0149005479
 H     -2.5292815085     2.0381759611    -0.8360503601
 F     -3.0916016515     1.5838548603    -1.4002111477
 H     -1.8980766319     0.3139322310    -1.5576324947
 F     -1.0763597158    -0.0342870956    -1.3468871263
