          6
Energy: -16.860767405724516 Kcal/mole
 H     -0.6623905505     1.5040831105    -0.5816816706
 F     -0.8952498495     2.2137587519    -0.0496797619
 H     -2.5634527531     1.9184486366    -0.4024386630
 F     -3.2078152550     1.4197930391    -0.8231862847
 H     -1.9647017748     0.3908295479    -1.5343365597
 F     -1.0772424245     0.1799216917    -1.6282662022
          6
Energy: -16.871954740386116 Kcal/mole
 H     -0.6339944943     1.4655116382    -0.5593160066
 F     -0.8839171563     2.1791163541    -0.0404750171
 H     -2.5491626196     1.8513773664    -0.3934660856
 F     -3.2012951279     1.3481514855    -0.7964250221
 H     -1.9624208130     0.3378151114    -1.4868488617
 F     -1.0768904567     0.1286091010    -1.6006813405
          6
Energy: -16.866929569366164 Kcal/mole
 H     -0.6393208191     1.4545406061    -0.5238515686
 F     -0.8842272526     2.1728110608    -0.0090725940
 H     -2.5578699523     1.8643125615    -0.4163167893
 F     -3.1996768634     1.3680440181    -0.8437397901
 H     -1.9405914201     0.3178737652    -1.4968657268
 F     -1.0481656054     0.1168804795    -1.5606376997
          6
Energy: -16.866160328743717 Kcal/mole
 H     -0.6258804086     1.4294484409    -0.4724409801
 F     -0.8919920752     2.1607972268     0.0125358588
 H     -2.5597188860     1.8578626707    -0.4106379419
 F     -3.1865825544     1.3478148995    -0.8439763920
 H     -1.9290310155     0.3143118357    -1.4684917513
 F     -1.0419875469     0.0911838429    -1.5337357821
          6
Energy: -16.871132587506565 Kcal/mole
 H     -0.6213078987     1.4800284766    -0.5459986274
 F     -0.8791612650     2.2009584989    -0.0413596034
 H     -2.5389147975     1.8906633373    -0.4765415536
 F     -3.1727038053     1.3935920726    -0.9148572518
 H     -1.9144551611     0.3607520105    -1.5148328557
 F     -1.0282629018     0.1324579308    -1.5734339892
          6
Energy: -16.863769955184637 Kcal/mole
 H     -0.6513169637     1.4229584802    -0.4172610801
 F     -0.9206620941     2.1789193941     0.0264339698
 H     -2.5608830102     1.8772958552    -0.4578517076
 F     -3.1971817846     1.3664255387    -0.8762108709
 H     -1.9314594128     0.2446675179    -1.3722078941
 F     -1.0414561734     0.0246280451    -1.3913354748
          6
Energy: -16.85996624178341 Kcal/mole
 H     -0.6575719348     1.3951836960    -0.4319692155
 F     -0.9070765195     2.1320279893     0.0535170867
 H     -2.5515155014     1.8706485979    -0.4478259136
 F     -3.1758225132     1.4029379232    -0.9298803502
 H     -1.9236097559     0.2963944462    -1.4342727706
 F     -1.0449597041     0.0339999244    -1.4307797164
          6
Energy: -16.86809676820235 Kcal/mole
 H     -0.6579222302     1.3614049230    -0.3737398116
 F     -0.9025917734     2.1364616979     0.0508927477
 H     -2.5490047780     1.9144697485    -0.5011321333
 F     -3.1755706348     1.4167753462    -0.9490210805
 H     -1.9293896493     0.2778997177    -1.4013340342
 F     -1.0583245371    -0.0068930613    -1.3692771580
          6
Energy: -16.862378946982005 Kcal/mole
 H     -0.6936081806     1.3255932495    -0.3708805340
 F     -0.9298267813     2.0763321396     0.0997370300
 H     -2.5745873716     1.9069310578    -0.4702485669
 F     -3.1938144721     1.4523597751    -0.9710596561
 H     -1.9882347480     0.2984380695    -1.4129656039
 F     -1.1234661176    -0.0060359721    -1.3939978976
          6
Energy: -16.86915345506617 Kcal/mole
 H     -0.7073180961     1.3181382705    -0.3715373568
 F     -0.9384302272     2.0870097214     0.0715347309
 H     -2.5716357296     1.9243498966    -0.4941865223
 F     -3.2084604290     1.4830112543    -0.9846592585
 H     -2.0181610960     0.2784344714    -1.4208602349
 F     -1.1547707821    -0.0292004379    -1.3924537506
          6
Energy: -16.868345532485023 Kcal/mole
 H     -0.7342154551     1.3447169309    -0.4394516018
 F     -0.9514776018     2.1292695794    -0.0173576533
 H     -2.6070507539     1.9087267676    -0.5080580760
 F     -3.2503057851     1.4125948096    -0.9334579409
 H     -2.0306115243     0.2293342313    -1.3971938664
 F     -1.1550315052    -0.0427209389    -1.3818767332
          6
Energy: -16.87294083538245 Kcal/mole
 H     -0.7063022547     1.3606398981    -0.4539893507
 F     -0.9396596064     2.1316609734    -0.0158571243
 H     -2.6038844981     1.9015290729    -0.4872279194
 F     -3.2503320004     1.4077302430    -0.9104977415
 H     -2.0274666828     0.2374943695    -1.3901024964
 F     -1.1527286039    -0.0376668478    -1.3930346840
          6
Energy: -16.8686231438395 Kcal/mole
 H     -0.7400245731     1.3221285251    -0.3965374304
 F     -0.9649035064     2.1088115961     0.0175256217
 H     -2.6288651042     1.8981685140    -0.4423209270
 F     -3.2847794289     1.4074358783    -0.8544457613
 H     -2.0806595128     0.2104682085    -1.3273941146
 F     -1.2131173095    -0.0864801171    -1.3183820395
          6
Energy: -16.866140893774457 Kcal/mole
 H     -0.7561554406     1.3144320093    -0.3444918980
 F     -0.9778240553     2.0869558159     0.0970497122
 H     -2.6429375983     1.8713055078    -0.3733867685
 F     -3.2822686486     1.3927156213    -0.8240490907
 H     -2.0705655076     0.1991490597    -1.2954335879
 F     -1.1964743149    -0.0779271292    -1.2863576670
          6
Energy: -16.860593896950547 Kcal/mole
 H     -0.7423856160     1.2947431189    -0.2818507865
 F     -0.9591854662     2.0849070150     0.1298868026
 H     -2.6324100810     1.8904327658    -0.4109311447
 F     -3.2517662409     1.4063208407    -0.8830779345
 H     -2.0375308499     0.2281845564    -1.3216052194
 F     -1.1749001553    -0.0785600523    -1.2699812934
          6
Energy: -16.860283608702673 Kcal/mole
 H     -0.7092500424     1.3699211047    -0.3364888864
 F     -0.9309340751     2.1970647209    -0.0084970758
 H     -2.6008757565     1.9589855118    -0.5278886811
 F     -3.2359262087     1.4292231169    -0.9240600180
 H     -2.0309231543     0.2255030981    -1.2371177738
 F     -1.1733310530    -0.0952128366    -1.1864613135
          6
Energy: -16.865737850953053 Kcal/mole
 H     -0.7350335083     1.3421075130    -0.3001723393
 F     -0.9475924456     2.1572954199     0.0620104525
 H     -2.6052958603     1.9028802606    -0.4220979636
 F     -3.2559124269     1.3907708560    -0.8162185555
 H     -2.0688251444     0.1514033009    -1.1624199169
 F     -1.1991015876    -0.1350597990    -1.1133401127
          6
Energy: -16.86162095181504 Kcal/mole
 H     -0.7202562631     1.3163474632    -0.3085415966
 F     -0.9201690209     2.1542678848     0.0058041628
 H     -2.5973388099     1.9768402779    -0.5363698686
 F     -3.2377386164     1.4544313682    -0.9336934381
 H     -2.0651617518     0.1849513202    -1.1656115811
 F     -1.2173319695    -0.1564589513    -1.0913641107
          6
Energy: -16.870879605034247 Kcal/mole
 H     -0.7122638176     1.3597136131    -0.3607019712
 F     -0.9312543949     2.1965180088    -0.0562507759
 H     -2.6001968261     1.9563724572    -0.5339644468
 F     -3.2536577356     1.4334959346    -0.9087683714
 H     -2.0689965632     0.1796337889    -1.1851791562
 F     -1.2113744929    -0.1398235920    -1.1275565367
          6
Energy: -16.867995642707797 Kcal/mole
 H     -0.7293227632     1.3639523729    -0.3246669230
 F     -0.9554636738     2.2028109180    -0.0312974806
 H     -2.6029348023     1.9433326178    -0.5291462087
 F     -3.2476161687     1.4266776429    -0.9270690312
 H     -2.0632785429     0.1727852747    -1.1751997338
 F     -1.2082993667    -0.1479840692    -1.0914940809
          6
Energy: -16.865151686282275 Kcal/mole
 H     -0.7578603942     1.3778026196    -0.3400424178
 F     -0.9525924322     2.2456769880    -0.1169672866
 H     -2.5802707666     1.9971038917    -0.6627491220
 F     -3.2222522766     1.4504430127    -1.0231802862
 H     -2.0799483951     0.1446987528    -1.0961604032
 F     -1.2356655439    -0.1856971045    -0.9586320622
          6
Energy: -16.872856691703134 Kcal/mole
 H     -0.7814603339     1.3586357116    -0.2344009428
 F     -0.9606135688     2.2395992197    -0.0535794404
 H     -2.5759270496     2.0412517055    -0.7099752680
 F     -3.2082307832     1.5039412271    -1.1003320769
 H     -2.1127328531     0.1598337331    -1.0456589413
 F     -1.2952425282    -0.2003258342    -0.8385752509
          6
Energy: -16.867274281792334 Kcal/mole
 H     -0.8012756756     1.3625810640    -0.2542560400
 F     -0.9799132694     2.2458222311    -0.0843659259
 H     -2.5571579676     2.0341506889    -0.7629955472
 F     -3.2019473204     1.5118892553    -1.1533526727
 H     -2.1066521934     0.1674167346    -1.1014958415
 F     -1.2911275083    -0.1867000330    -0.8769745667
          6
Energy: -16.87287771385394 Kcal/mole
 H     -0.7778904989     1.4017168428    -0.2682831483
 F     -0.9758339945     2.2825807252    -0.1077023488
 H     -2.5669344790     2.0632614726    -0.7944384923
 F     -3.1966887660     1.5278546398    -1.1914750920
 H     -2.0887918270     0.1706786280    -1.1120446381
 F     -1.2738212204    -0.1743410659    -0.8718919342
          6
Energy: -16.869675716568906 Kcal/mole
 H     -0.7796624327     1.3842527123    -0.2427056939
 F     -0.9571898409     2.2758504558    -0.1225953981
 H     -2.5471230768     2.0474434721    -0.8093540915
 F     -3.1938834925     1.5099288289    -1.1749604003
 H     -2.0918856239     0.1497394052    -1.0520234336
 F     -1.2764161325    -0.1922967369    -0.8093100509
          6
Energy: -16.870786129409964 Kcal/mole
 H     -0.7391274644     1.3966288982    -0.3525782411
 F     -0.9046068598     2.2885725919    -0.2186304268
 H     -2.5230154908     2.0699433124    -0.8518196847
 F     -3.1720217507     1.5181435699    -1.1912264005
 H     -2.0789022042     0.1533561722    -1.0709396375
 F     -1.2606419692    -0.1913261431    -0.8417382211
          6
Energy: -16.86824656024197 Kcal/mole
 H     -0.7423208217     1.4074061018    -0.3398919994
 F     -0.9331876537     2.2970448649    -0.2258668988
 H     -2.5594836676     2.0520685723    -0.8404754345
 F     -3.1928752085     1.4920523059    -1.1955612512
 H     -2.0837119471     0.1449367555    -1.0698898694
 F     -1.2603042430    -0.1921013594    -0.8478672085
          6
Energy: -16.86458013493052 Kcal/mole
 H     -0.7393567764     1.4217064507    -0.3887157560
 F     -0.9319133171     2.3045155986    -0.2323220639
 H     -2.5702278710     2.0638216517    -0.8406568962
 F     -3.2069760768     1.4905784225    -1.1675099558
 H     -2.0569023620     0.1710121453    -1.1321891724
 F     -1.2214581108    -0.1555562372    -0.9417292170
          6
Energy: -16.864211601029865 Kcal/mole
 H     -0.7257259708     1.4333419013    -0.4306197703
 F     -0.9326363999     2.3038983648    -0.2300991528
 H     -2.5663184686     2.0359664104    -0.7787279197
 F     -3.2025561403     1.4716002206    -1.1216294053
 H     -2.0544188767     0.1660234714    -1.1286289285
 F     -1.2063824110    -0.1467576557    -0.9740614045
          6
Energy: -16.870096430231285 Kcal/mole
 H     -0.7171035120     1.4077256089    -0.3967127702
 F     -0.9323912242     2.2752579107    -0.1919497212
 H     -2.5647826312     2.0194646087    -0.7785933196
 F     -3.2008323279     1.4676530675    -1.1416825736
 H     -2.0267218782     0.1782191934    -1.2019178637
 F     -1.1793087422    -0.1386623669    -1.0523650178
          6
Energy: -16.87384663877492 Kcal/mole
 H     -0.7291800047     1.4145621740    -0.3764515090
 F     -0.9483292723     2.2817084812    -0.1741648798
 H     -2.5679595989     2.0193077264    -0.7728520422
 F     -3.2006637971     1.4676613897    -1.1419871351
 H     -2.0251974306     0.1800325933    -1.1917973352
 F     -1.1817970553    -0.1400808723    -1.0272003243
          6
Energy: -16.87248140192122 Kcal/mole
 H     -0.7346011213     1.4190672481    -0.4000568584
 F     -0.9480416946     2.2814694974    -0.1729126706
 H     -2.5657481456     2.0127164018    -0.7587389886
 F     -3.1966439828     1.4695783090    -1.1432652618
 H     -2.0143088268     0.1703648812    -1.2351400066
 F     -1.1648705846    -0.1339762078    -1.0716769399
          6
Energy: -16.86718347356822 Kcal/mole
 H     -0.7329377241     1.4115274255    -0.3357889882
 F     -0.9836423382     2.2610343375    -0.0983564653
 H     -2.5751727632     1.9952676520    -0.7598298411
 F     -3.1885619631     1.4627012945    -1.1852893155
 H     -2.0113287457     0.1737771510    -1.2439564788
 F     -1.1650286710    -0.1341572208    -1.0712092464
          6
Energy: -16.87069717427954 Kcal/mole
 H     -0.7694504647     1.3864076686    -0.2916745491
 F     -0.9975476380     2.2517888490    -0.0917343276
 H     -2.5670279672     2.0149537198    -0.8083941864
 F     -3.1763488242     1.4754177438    -1.2309081198
 H     -2.0239882078     0.1594315873    -1.2206975789
 F     -1.1908688965    -0.1606240793    -1.0100661866
          6
Energy: -16.87184420818187 Kcal/mole
 H     -0.7715476406     1.3767811297    -0.2889954091
 F     -1.0012752008     2.2349042789    -0.0615335250
 H     -2.5737828469     2.0098594508    -0.7925496021
 F     -3.1759904934     1.4756879830    -1.2317486384
 H     -2.0225828245     0.1723013516    -1.2156058842
 F     -1.1979955989    -0.1680818551    -1.0032755287
          6
Energy: -16.870870451193866 Kcal/mole
 H     -0.7965775639     1.3548439436    -0.2379551805
 F     -1.0224034187     2.2131458126    -0.0072831516
 H     -2.5955109988     1.9810180469    -0.7463395034
 F     -3.1886869565     1.4580935401    -1.2106467759
 H     -2.0216065992     0.1603845144    -1.2209156518
 F     -1.1968717089    -0.1730634757    -0.9983986893
          6
Energy: -16.868689378556155 Kcal/mole
 H     -0.7891852039     1.3684878740    -0.2372245379
 F     -1.0358149703     2.2163069320     0.0102943568
 H     -2.5544677317     1.9977022073    -0.8221862922
 F     -3.1282043938     1.4802721480    -1.3161310019
 H     -1.9584812423     0.1936664530    -1.3093037657
 F     -1.1358240103    -0.1247406281    -1.0588222110
          6
Energy: -16.869208808279723 Kcal/mole
 H     -0.7991503064     1.3663898420    -0.2397335249
 F     -1.0352863446     2.2164182278     0.0104274528
 H     -2.5514140076     2.0313983251    -0.8376626332
 F     -3.1219799926     1.5255582285    -1.3470438788
 H     -1.9707935128     0.2059099607    -1.3041327017
 F     -1.1637465878    -0.1428781398    -1.0435350773
          6
Energy: -16.87322623506674 Kcal/mole
 H     -0.7950671775     1.3794355402    -0.2581482007
 F     -1.0278846681     2.2362830985    -0.0290253563
 H     -2.5431272411     2.0414145412    -0.8650578075
 F     -3.1238737675     1.5278823787    -1.3548610232
 H     -1.9712851872     0.1997313091    -1.3172044354
 F     -1.1652532435    -0.1376421428    -1.0390306415
          6
Energy: -16.875713249738396 Kcal/mole
 H     -0.7950917252     1.3808166958    -0.2608042485
 F     -1.0247135366     2.2386628161    -0.0321935365
 H     -2.5489752795     2.0453898136    -0.8623534163
 F     -3.1235635426     1.5276714997    -1.3550044849
 H     -1.9797167088     0.2121394122    -1.3208241017
 F     -1.1704204302    -0.1290380521    -1.0571453745
          6
Energy: -16.87310550097709 Kcal/mole
 H     -0.8035792567     1.3894616660    -0.2758389430
 F     -1.0354866112     2.2456743395    -0.0434430813
 H     -2.5641667242     2.0517167298    -0.8893133649
 F     -3.1346285052     1.5289000169    -1.3813753946
 H     -1.9814180471     0.2033962746    -1.3266880446
 F     -1.1703301781    -0.1285742488    -1.0568343059
          6
Energy: -16.873234840627276 Kcal/mole
 H     -0.8089411873     1.3734400816    -0.2478382250
 F     -1.0229352352     2.2424949910    -0.0482408503
 H     -2.5468377223     2.0310370599    -0.8734776413
 F     -3.1315004016     1.5066135751    -1.3468047586
 H     -1.9990804793     0.1842420306    -1.2532795726
 F     -1.1940266904    -0.1591424656    -0.9796658217
          6
Energy: -16.874997267533956 Kcal/mole
 H     -0.7892663546     1.3842024519    -0.2708771796
 F     -1.0239789396     2.2419240721    -0.0470186870
 H     -2.5549237360     2.0260896828    -0.8583622999
 F     -3.1310714572     1.5068760220    -1.3476065925
 H     -1.9794763222     0.2031607362    -1.3106757711
 F     -1.1671564254    -0.1372105362    -1.0553861665
          6
Energy: -16.87154464586473 Kcal/mole
 H     -0.7883586437     1.3925427781    -0.2971957979
 F     -1.0284741219     2.2468079303    -0.0659716491
 H     -2.5430444444     2.0380752828    -0.9035850795
 F     -3.1123326498     1.5115563636    -1.3930518986
 H     -1.9646305423     0.2060002860    -1.3431355004
 F     -1.1564953815    -0.1317954357    -1.0716569334
          6
Energy: -16.873940275900566 Kcal/mole
 H     -0.7642665745     1.4083992040    -0.3268612191
 F     -1.0297521505     2.2459667835    -0.0643979671
 H     -2.5700909744     2.0198910499    -0.8588171855
 F     -3.1453577531     1.5039698469    -1.3525604849
 H     -1.9526937251     0.2388354821    -1.3918267120
 F     -1.1259038403    -0.0896759188    -1.1695931734
          6
Energy: -16.87474207050741 Kcal/mole
 H     -0.7771825406     1.3961578376    -0.3267613606
 F     -1.0202944553     2.2384275998    -0.0577497535
 H     -2.5589275281     2.0337173161    -0.8619752634
 F     -3.1266483325     1.5211754540    -1.3678239837
 H     -1.9478543344     0.2423363807    -1.4042081631
 F     -1.1261605588    -0.0898616334    -1.1689363660
          6
Energy: -16.872451321842334 Kcal/mole
 H     -0.7721276568     1.3943211196    -0.3391453976
 F     -1.0068637394     2.2381874282    -0.0677091718
 H     -2.5528252964     2.0332338218    -0.8663148567
 F     -3.1281057910     1.5207485008    -1.3636076761
 H     -1.9525611141     0.2366873976    -1.3954532936
 F     -1.1259108750    -0.0895619679    -1.1694007916
          6
Energy: -16.87366858251835 Kcal/mole
 H     -0.7550544208     1.4065324532    -0.3605970087
 F     -1.0077694351     2.2375396452    -0.0665712134
 H     -2.5573435062     2.0250514149    -0.8529376676
 F     -3.1278661105     1.5211825586    -1.3643173051
 H     -1.9295314144     0.2484314307    -1.4402591812
 F     -1.0996520506    -0.0750305019    -1.2221729149
          6
Energy: -16.87324876249022 Kcal/mole
 H     -0.7586639264     1.4018970837    -0.3503485067
 F     -1.0075779592     2.2377855409    -0.0671148727
 H     -2.5531572172     2.0370619225    -0.8696301884
 F     -3.1227218038     1.5246547474    -1.3735389784
 H     -1.9199325734     0.2630420485    -1.4410821758
 F     -1.0954175221    -0.0710721228    -1.2187498780
          6
Energy: -16.874970465149318 Kcal/mole
 H     -0.7569575212     1.4010028954    -0.3461705616
 F     -1.0076684800     2.2378329755    -0.0673365031
 H     -2.5198114497     2.0482392680    -0.9089795616
 F     -3.0905780985     1.5490511402    -1.4246593514
 H     -1.9147777165     0.2605087459    -1.4628097193
 F     -1.0956909753    -0.0709377370    -1.2175972821
          6
Energy: -16.873611820239717 Kcal/mole
 H     -0.7584155375     1.4042188666    -0.3520032674
 F     -1.0090218601     2.2408948973    -0.0726134132
 H     -2.5260301129     2.0479792809    -0.9019351461
 F     -3.0902482128     1.5490649320    -1.4250330414
 H     -1.9125542109     0.2693347262    -1.4580812203
 F     -1.0958089272    -0.0714059349    -1.2178481180
          6
Energy: -16.874312243346594 Kcal/mole
 H     -0.7488374417     1.4110583545    -0.3646384438
 F     -0.9930254338     2.2519387019    -0.0922756969
 H     -2.5228975052     2.0655486882    -0.9131806752
 F     -3.0961125064     1.5573897252    -1.4172521291
 H     -1.9190114708     0.2587294116    -1.4433600962
 F     -1.0939037742    -0.0700161936    -1.2152973504
          6
Energy: -16.87512053241204 Kcal/mole
 H     -0.7460527522     1.4119046249    -0.3647381606
 F     -0.9931731551     2.2518938093    -0.0922704072
 H     -2.5261613603     2.0550890920    -0.9088154068
 F     -3.0941931667     1.5511491515    -1.4228906964
 H     -1.9168372600     0.2558492669    -1.4550331642
 F     -1.0940191110    -0.0698634086    -1.2146781211
          6
Energy: -16.87358861437548 Kcal/mole
 H     -0.7455797110     1.4119785943    -0.3764172938
 F     -0.9904010155     2.2526650154    -0.1040244338
 H     -2.5409724334     2.0482908412    -0.8887068126
 F     -3.1191094280     1.5362927755    -1.3831808728
 H     -1.9186200243     0.2529243305    -1.4584601640
 F     -1.0897316199    -0.0666099500    -1.2310159805
          6
Energy: -16.873873099352465 Kcal/mole
 H     -0.7225550740     1.4354223212    -0.4191015951
 F     -0.9833667100     2.2602908484    -0.1150321896
 H     -2.5422764101     2.0347694363    -0.8702866282
 F     -3.1178694898     1.5287617075    -1.3738119851
 H     -1.9072326153     0.2787302765    -1.4794029300
 F     -1.0718576148    -0.0409440660    -1.2772991864
          6
Energy: -16.874325480839673 Kcal/mole
 H     -0.7216287244     1.4324821341    -0.4101766113
 F     -0.9834158507     2.2604468186    -0.1155056394
 H     -2.5359908135     2.0360121133    -0.8903706782
 F     -3.1153290951     1.5210120959    -1.3803004055
 H     -1.9080224639     0.2751871285    -1.4776355540
 F     -1.0731512940    -0.0466584391    -1.2769005037
          6
Energy: -16.8758967080272 Kcal/mole
 H     -0.7355653285     1.4102266664    -0.3820973510
 F     -0.9902773350     2.2406613326    -0.0881771938
 H     -2.5423828913     2.0452664122    -0.8851554175
 F     -3.1096855747     1.5393968848    -1.3981395172
 H     -1.9124114191     0.2702673629    -1.4787076263
 F     -1.0850016733    -0.0591015933    -1.2600796244
          6
Energy: -16.87184777858579 Kcal/mole
 H     -0.7380283449     1.3806541498    -0.3798593847
 F     -0.9789774499     2.2128170694    -0.0792975705
 H     -2.5269615474     2.0396080166    -0.8834714071
 F     -3.0972429461     1.5449824173    -1.4040611139
 H     -1.9087106673     0.2628688918    -1.4856565570
 F     -1.0811528191    -0.0648753226    -1.2651554511
          6
Energy: -16.872413432064093 Kcal/mole
 H     -0.7217922146     1.3950813283    -0.3822516588
 F     -0.9826054201     2.2193896969    -0.0766683066
 H     -2.5210249325     2.0283648280    -0.8874903369
 F     -3.0895516785     1.5422280581    -1.4179027991
 H     -1.8940192058     0.2724005270    -1.5152861740
 F     -1.0709898121    -0.0605365207    -1.2857986156
          6
Energy: -16.87379906690785 Kcal/mole
 H     -0.7261837372     1.3904101493    -0.3906122694
 F     -0.9779386877     2.2230903876    -0.1005225151
 H     -2.5157761418     2.0410838114    -0.9225032109
 F     -3.0807689847     1.5466352392    -1.4489941385
 H     -1.9049030185     0.2603318962    -1.5049399947
 F     -1.0833077552    -0.0744771091    -1.2730496039
          6
Energy: -16.874076955120074 Kcal/mole
 H     -0.7363023103     1.4010012092    -0.3706246177
 F     -0.9943892656     2.2348521378    -0.0896037068
 H     -2.5148538039     2.0459300788    -0.9280999856
 F     -3.0808179126     1.5463781559    -1.4486972426
 H     -1.9077786342     0.2606120534    -1.4822336752
 F     -1.0887403757    -0.0806541554    -1.2507110934
          6
Energy: -16.8763035733449 Kcal/mole
 H     -0.7395812543     1.3984728025    -0.3798484193
 F     -1.0009564053     2.2250958049    -0.0810735166
 H     -2.5206324959     2.0464215394    -0.9283986158
 F     -3.0785122385     1.5547733864    -1.4650002244
 H     -1.8887346123     0.2839278397    -1.5239567255
 F     -1.0690672637    -0.0532457378    -1.2886942843
          6
Energy: -16.87340310707333 Kcal/mole
 H     -0.7345423070     1.4017844332    -0.3845003394
 F     -1.0012237098     2.2249201305    -0.0808267430
 H     -2.5238771605     2.0485571955    -0.9269987600
 F     -3.0783401165     1.5546600948    -1.4650744835
 H     -1.8917717513     0.2785553014    -1.5209697730
 F     -1.0689061504    -0.0529607371    -1.2888527352
          6
Energy: -16.875366685654058 Kcal/mole
 H     -0.7344468025     1.4124413510    -0.3997640116
 F     -0.9933917539     2.2418620243    -0.1066806464
 H     -2.5174377201     2.0503608962    -0.9354027944
 F     -3.0786817140     1.5545644126    -1.4646286689
 H     -1.8934548386     0.2765342382    -1.5178519482
 F     -1.0688168666    -0.0528535243    -1.2890181286
          6
Energy: -16.875579134628936 Kcal/mole
 H     -0.7346082340     1.4102400958    -0.3936001195
 F     -0.9933831903     2.2419787958    -0.1070076266
 H     -2.5032337532     2.0546749102    -0.9556839209
 F     -3.0672745333     1.5603651265    -1.4833247419
 H     -1.8822391979     0.2750147751    -1.5357951072
 F     -1.0640164425    -0.0556037272    -1.2866125867
          6
Energy: -16.876732111743536 Kcal/mole
 H     -0.7334709443     1.4096200502    -0.3907557980
 F     -0.9934435209     2.2420116878    -0.1071585113
 H     -2.5078107135     2.0585076451    -0.9544189942
 F     -3.0670317362     1.5601618088    -1.4833918434
 H     -1.8831001219     0.2795972306    -1.5266660593
 F     -1.0639707724    -0.0558468158    -1.2870968616
          6
Energy: -16.875509221079994 Kcal/mole
 H     -0.7353311155     1.4091595535    -0.3911023570
 F     -0.9933448431     2.2420361161    -0.1071401271
 H     -2.5118906467     2.0473867650    -0.9393734585
 F     -3.0783887938     1.5513851191    -1.4627769517
 H     -1.8922447255     0.2674762755    -1.5030143587
 F     -1.0691961718    -0.0629739651    -1.2700278425
          6
Energy: -16.876712639498976 Kcal/mole
 H     -0.7385698029     1.4075056802    -0.3891626960
 F     -0.9931730383     2.2421238502    -0.1072430217
 H     -2.5132793240     2.0529174432    -0.9431586976
 F     -3.0783151277     1.5510917294    -1.4625761535
 H     -1.8886062181     0.2712167373    -1.5103784805
 F     -1.0693891862    -0.0631723880    -1.2696371929
          6
Energy: -16.87679785069696 Kcal/mole
 H     -0.7397663167     1.4070346932    -0.3888456498
 F     -0.9931095660     2.2421488350    -0.1072598402
 H     -2.5136563857     2.0521045048    -0.9419653719
 F     -3.0782951255     1.5511348539    -1.4626394567
 H     -1.8893281364     0.2681541330    -1.5121473232
 F     -1.0693508901    -0.0630099239    -1.2695433598
          6
Energy: -16.876357331429517 Kcal/mole
 H     -0.7375116956     1.4075793426    -0.3884220640
 F     -0.9932291684     2.2421199426    -0.1072823105
 H     -2.5135969334     2.0479100052    -0.9380275574
 F     -3.0782982793     1.5513573624    -1.4628483486
 H     -1.8908333183     0.2666249620    -1.5091174214
 F     -1.0692710437    -0.0629288049    -1.2697040891
          6
Energy: -16.87640990496368 Kcal/mole
 H     -0.7404395754     1.4071032091    -0.3896525097
 F     -0.9930738511     2.2421452004    -0.1072170382
 H     -2.5146671493     2.0573189697    -0.9489002789
 F     -3.0758388536     1.5511709411    -1.4683129197
 H     -1.8886058178     0.2702820059    -1.5116726090
 F     -1.0693892075    -0.0631228026    -1.2695685423
          6
Energy: -16.8768135049674 Kcal/mole
 H     -0.7349251762     1.4081627513    -0.3877873128
 F     -0.9933663773     2.2420889941    -0.1073159826
 H     -2.5143925942     2.0538918569    -0.9458785533
 F     -3.0758534181     1.5513527415    -1.4684732153
 H     -1.8904649521     0.2691023300    -1.5069472298
 F     -1.0692905847    -0.0630602235    -1.2698192128
          6
Energy: -16.875309722398242 Kcal/mole
 H     -0.7340612582     1.4085350664    -0.3880964179
 F     -0.9934122061     2.2420692437    -0.1072995853
 H     -2.5090996109     2.0542504510    -0.9519758283
 F     -3.0761341986     1.5513337189    -1.4681497689
 H     -1.8907537708     0.2640310915    -1.5129143545
 F     -1.0692752635    -0.0627912060    -1.2695026706
          6
Energy: -16.875887383359782 Kcal/mole
 H     -0.7387112133     1.4049094596    -0.3814815225
 F     -0.9931655368     2.2422615737    -0.1076504902
 H     -2.5137336144     2.0528533035    -0.9455894540
 F     -3.0758883755     1.5514078344    -1.4684885513
 H     -1.8900992375     0.2681463557    -1.5095356003
 F     -1.0693099850    -0.0630095113    -1.2696819057
          6
Energy: -16.876556712123033 Kcal/mole
 H     -0.7378130986     1.4091080756    -0.3872397679
 F     -0.9964293672     2.2417901736    -0.1032553506
 H     -2.5110395428     2.0519639727    -0.9476452952
 F     -3.0760312897     1.5514550113    -1.4683794937
 H     -1.8896924962     0.2664401216    -1.5132462322
 F     -1.0693315617    -0.0629189995    -1.2694850653
          6
Energy: -16.87702474496507 Kcal/mole
 H     -0.7401555893     1.4072171789    -0.3837897605
 F     -0.9963051034     2.2418904813    -0.1034383655
 H     -2.5136181162     2.0539249729    -0.9467438352
 F     -3.0758945024     1.5513509848    -1.4684273141
 H     -1.8888777986     0.2703860104    -1.5106064146
 F     -1.0693747795    -0.0631283198    -1.2696251015
          6
Energy: -16.877128501540028 Kcal/mole
 H     -0.7386255621     1.4074601535    -0.3831098339
 F     -0.9963862678     2.2418775921    -0.1034744341
 H     -2.5133675575     2.0530999272    -0.9462200937
 F     -3.0759077939     1.5513947515    -1.4684550973
 H     -1.8891063430     0.2699505699    -1.5104312531
 F     -1.0693626558    -0.0631052207    -1.2696343934
          6
Energy: -16.876995678195158 Kcal/mole
 H     -0.7362413848     1.4083565382    -0.3835743037
 F     -0.9965127429     2.2418300409    -0.1034497950
 H     -2.5130770758     2.0499440230    -0.9435186376
 F     -3.0759232033     1.5515621650    -1.4685984033
 H     -1.8883340323     0.2709292520    -1.5116998551
 F     -1.0694036251    -0.0631571375    -1.2695670970
          6
Energy: -16.87704182528006 Kcal/mole
 H     -0.7379758295     1.4057102231    -0.3855942306
 F     -0.9964724960     2.2392721008    -0.1040927753
 H     -2.5120536319     2.0512447020    -0.9458584747
 F     -3.0759774946     1.5514931670    -1.4684742804
 H     -1.8886864448     0.2705627064    -1.5110120977
 F     -1.0693849304    -0.0631376931    -1.2696035809
          6
Energy: -16.877123483142668 Kcal/mole
 H     -0.7391899893     1.4055585688    -0.3862564787
 F     -0.9964080876     2.2392801458    -0.1040576446
 H     -2.5129013629     2.0513909276    -0.9450849150
 F     -3.0759325245     1.5514854100    -1.4685153159
 H     -1.8890577776     0.2694416871    -1.5112982254
 F     -1.0693652321    -0.0630782256    -1.2695884025
