          6
Energy: -16.87711410521223 Kcal/mole
 H     -1.0798133381     1.0357210629     0.5303847826
 F     -1.0972160587     1.9169303778     0.7834782211
 H     -1.6942607280     2.3554031813    -0.7976917997
 F     -1.9570974855     2.1162170353    -1.6430294994
 H     -1.6277476889     0.4398506538    -1.2651898697
 F     -1.3470559096    -0.2004016543    -0.6717439101
