          6
Energy: -16.806490217606438 Kcal/mole
 H     -1.0045203143     6.2346668944    -1.5231049204
 F     -1.8675393835     6.1138315208    -1.2376475703
 H     -2.2875438734     5.4346852543    -2.8260571116
 F     -2.0263323891     5.2232434069    -3.6792569157
 H     -0.4014009991     5.7003280892    -3.3355438006
 F      0.2035546093     6.0906741772    -2.7676110199
          6
Energy: -16.809109963231947 Kcal/mole
 H     -0.8780258766     5.6831832470    -1.3838037412
 F     -1.7416487881     5.7602503399    -1.0852989171
 H     -2.2527268118     4.8323035985    -2.5012041097
 F     -2.0617134173     4.3474746353    -3.2557528223
 H     -0.3815598266     4.7325775891    -3.0561010473
 F      0.2945851144     5.1399382094    -2.5894380599
          6
Energy: -16.833297668768466 Kcal/mole
 H     -0.7445138865     6.0642917210    -1.9309679192
 F     -1.5594407465     6.0824582151    -1.5109046011
 H     -2.0015746908     4.6143922672    -2.3013323405
 F     -1.8141765878     3.9306292111    -2.8829155540
 H     -0.2380294827     4.6153992474    -3.1817597095
 F      0.3707129402     5.2920518842    -3.0701224774
          6
Energy: -16.833868348152066 Kcal/mole
 H     -0.9277027029     5.4126395322    -1.4541476846
 F     -1.7669983767     5.7818890439    -1.4653980181
 H     -2.1196248008     4.8958766402    -2.9342409553
 F     -1.8457621113     4.3123535803    -3.5864595275
 H     -0.3287668689     4.1772621346    -2.8262564843
 F      0.2873904615     4.3929162634    -2.1822592475
          6
Energy: -16.81481013352885 Kcal/mole
 H     -0.9890057333     5.4334735561    -1.3353120639
 F     -1.8562551889     5.3525826601    -1.0485647105
 H     -2.1050722542     4.0761230450    -2.2189349666
 F     -1.7867837365     3.5180983057    -2.8732971062
 H     -0.2353578617     4.2307753337    -2.7349892148
 F      0.3166585969     4.8765119902    -2.3897487191
          6
Energy: -16.841183041852673 Kcal/mole
 H     -1.0832633675     5.3688722297    -1.4386533752
 F     -1.8763079694     5.0202720272    -1.1379090349
 H     -2.2868381566     4.5879656319    -2.8253432206
 F     -2.0578181308     4.5903584362    -3.7132807760
 H     -0.5436922798     5.3990528632    -3.3284747460
 F      0.0164179880     5.7718187881    -2.7054088962
          6
Energy: -16.745981014365668 Kcal/mole
 H     -0.9959507490     5.0941942188    -1.3641656467
 F     -1.7531136087     4.7078223753    -1.0202031452
 H     -2.4068289747     4.6426958893    -2.5687630613
 F     -2.3523664735     4.7737942955    -3.4747078961
 H     -0.7476623255     5.3684079532    -3.2763467979
 F     -0.0500725732     5.5857371545    -2.7222479297
          6
Energy: -16.82003752424464 Kcal/mole
 H     -0.3115743177     4.3430857336    -1.0954014182
 F     -0.9969753531     3.8627766375    -0.7206780630
 H     -1.8327387725     3.9627001357    -2.2442475293
 F     -1.8814019048     4.2773453551    -3.1042006010
 H     -0.3133698349     4.9720178253    -2.9556860603
 F      0.4148505438     5.1840331937    -2.4402895493
          6
Energy: -16.840177089555937 Kcal/mole
 H     -0.3642626692     4.3778591865    -1.1177692724
 F     -1.1497504581     4.2356763242    -0.6664578864
 H     -1.7019907776     3.1716859269    -1.9372170409
 F     -1.5772171487     2.7257846565    -2.7287298952
 H     -0.0046204944     3.4425427232    -2.8499952740
 F      0.6636491568     3.9775207647    -2.5212048113
          6
Energy: -16.832041974280116 Kcal/mole
 H     -0.5404836093     4.3821171674    -1.0342641604
 F     -1.0482722899     3.8534544137    -0.4833055879
 H     -0.7823993053     2.4854372838    -1.6027932893
 F     -0.4036663478     2.1597853290    -2.3718193950
 H      0.2612415074     3.7240525342    -2.7189174917
 F      0.4250895960     4.5949340285    -2.4831035254
          6
Energy: -16.786804972768152 Kcal/mole
 H     -0.9708540905     4.1159590938    -1.3632323463
 F     -0.9838796316     3.5619255415    -0.6326393280
 H      0.0418348887     2.4607212186    -1.4519778415
 F      0.5076627046     2.2314426027    -2.2078381210
 H     -0.0091114884     3.7239528200    -3.0255409549
 F     -0.4979754120     4.4995924342    -3.0086811504
          6
Energy: -16.79772677189345 Kcal/mole
 H     -1.4908006893     4.0587146422    -1.3352683706
 F     -1.6403155186     3.4784630979    -0.6411196393
 H     -1.3608612758     2.1962222850    -1.7340147790
 F     -1.1824950102     1.8693721772    -2.5720144701
 H     -1.0071697394     3.4843243564    -3.1547972153
 F     -1.0506773704     4.3879073709    -3.0046845178
          6
Energy: -16.789439311364788 Kcal/mole
 H     -1.2509856187     3.9406332737    -1.2543929606
 F     -1.6038983279     3.3536084579    -0.6446852558
 H     -1.3857487243     2.0245060002    -1.6983578624
 F     -1.1072600654     1.6598330865    -2.4923016468
 H     -0.6077723448     3.3136582341    -3.0204993721
 F     -0.5288579864     4.2074326650    -2.8312144262
          6
Energy: -16.846952670919222 Kcal/mole
 H     -0.9825709877     3.6471245076    -0.5535857196
 F     -1.6006564725     3.1070529392    -0.1447067221
 H     -1.2749088615     1.8613476705    -1.3302273766
 F     -0.8374631218     1.5668763474    -2.0804385900
 H      0.0229290060     3.0648097699    -2.1203236648
 F      0.2097145881     3.8943641275    -1.7770457683
          6
Energy: -16.864675653574693 Kcal/mole
 H     -0.7218409949     3.3248845400    -0.3104505818
 F     -1.6343076978     3.2385122547    -0.3393182858
 H     -1.4656846740     1.9780762092    -1.5415093719
 F     -0.9342999297     1.4462886136    -2.0666009894
 H      0.5012799600     2.2090452941    -1.3768842937
 F      0.8637658419     2.8437295180    -0.8231073337
          6
Energy: -16.866819245232534 Kcal/mole
 H     -0.7463947932     2.5487621059    -0.1318401070
 F     -1.5670877034     2.1402277345    -0.1105841774
 H     -1.4179804765     1.7257661321    -1.8050638837
 F     -0.9432551434     1.7521598111    -2.5891737178
 H      0.3097290768     2.6517265890    -1.7775193939
 F      0.6621891280     3.0392190184    -1.0248504564
          6
Energy: -16.814143928490466 Kcal/mole
 H     -0.4586481160     1.5422886863     0.0244037834
 F     -1.3731716805     1.5925565661     0.0692233131
 H     -1.4915096980     1.2290197251    -1.6080519520
 F     -1.0824089870     0.9964589516    -2.3950977542
 H      0.5038395801     1.1480382322    -1.6388878181
 F      1.0044507851     1.2845159219    -0.8828115907
          6
Energy: -16.819395970387916 Kcal/mole
 H     -0.2168162673     1.6042268240     0.1310090512
 F     -1.1226580958     1.7048861393     0.2320401555
 H     -1.3148366295     1.8217852975    -1.5121531103
 F     -0.9562957130     1.8704023100    -2.3547525391
 H      0.6682124573     1.7309744740    -1.6667844396
 F      1.2058480137     1.5933948320    -0.9367783776
          6
Energy: -16.84593738386593 Kcal/mole
 H     -0.2745897553     1.4548630921     0.1236444470
 F     -0.9927300149     1.9912497259     0.3171720852
 H     -0.9834181795     2.6154746842    -1.2882177794
 F     -0.6082765727     2.6797451807    -2.1225001526
 H      0.5817890087     1.4686717177    -1.6837775193
 F      0.9267694787     0.8986560211    -1.0537302346
          6
Energy: -16.856983154043064 Kcal/mole
 H     -0.5347600132     1.2122654040    -0.0497549430
 F     -1.3826794172     1.5454265442    -0.1542792895
 H     -0.9110545607     2.2717133427    -1.6785750779
 F     -0.2693829871     2.4357210846    -2.3128053612
 H      0.8900221682     1.5499913081    -1.3800467780
 F      1.0947710147     1.0300849030    -0.6529537717
          6
Energy: -16.839400970202632 Kcal/mole
 H     -0.4956799667     1.1967117830     0.0569366569
 F     -1.3668327232     1.4418054879    -0.0910868231
 H     -0.8607085109     2.4403149547    -1.4505123045
 F     -0.1961174614     2.7766949931    -1.9853545304
 H      1.0221997108     1.9157048936    -1.0548304737
 F      1.2356656719     1.3409033496    -0.3729767735
          6
Energy: -16.820395963277917 Kcal/mole
 H     -0.6723567798     1.1294218388     0.1491302617
 F     -1.5549088455     1.3452620635     0.0250180196
 H     -1.1605497573     2.1656542409    -1.4703271031
 F     -0.5303085395     2.3728741896    -2.1033712566
 H      0.7145739499     1.5856539356    -1.1418361211
 F      0.9942620990     1.1439983929    -0.3884411909
          6
Energy: -16.851716179555353 Kcal/mole
 H     -0.7506699065     0.5289532954    -0.2203993173
 F     -1.6435224264     0.6093669899    -0.4133682665
 H     -1.2263146012     1.4567820933    -1.9228036867
 F     -0.5758984179     1.8043227377    -2.4678388131
 H      0.6695173574     1.2153200106    -1.3915839583
 F      0.9301123623     0.7698621476    -0.6335954784
          6
Energy: -16.852757107180537 Kcal/mole
 H     -0.5964671265     0.9171105387     0.0706562425
 F     -1.4946983148     0.9456697463    -0.1117008359
 H     -1.1424924336     1.6306530864    -1.6779167147
 F     -0.5428844899     1.9542197226    -2.2916462527
 H      0.7675628571     1.5023478775    -1.2180101620
 F      1.0468241172     1.1506416746    -0.4185072568
          6
Energy: -16.859145920379262 Kcal/mole
 H     -0.7116922546     1.4679271124     0.3645286189
 F     -1.4016870390     2.0699295648     0.3156487172
 H     -0.8255647662     2.6161821263    -1.2645571648
 F     -0.2114277568     2.5285967003    -1.9398745175
 H      0.6324740881     1.2662894478    -1.0737119223
 F      0.7070797047     0.7210521016    -0.3402003421
          6
Energy: -16.807932900142475 Kcal/mole
 H     -0.5067164056     1.7264306182     0.3181692039
 F     -1.1243213886     2.4042182596     0.3106195010
 H     -0.5701922041     2.9380621923    -1.2521650522
 F     -0.0593630677     2.8476370034    -2.0083170730
 H      0.7411604825     1.4648755651    -1.2504924037
 F      0.8484427420     0.9109127462    -0.5276475296
          6
Energy: -16.838716346739602 Kcal/mole
 H     -0.6541161058     1.2778139225    -0.1064502852
 F     -1.2564897759     1.9344539501     0.1100187328
 H     -0.7930361252     2.7889801473    -1.3328756168
 F     -0.3060270847     2.8310798530    -2.1087227727
 H      0.4800721401     1.3162795744    -1.7089205273
 F      0.5684398553     0.5867966922    -1.1603452167
          6
Energy: -16.82487645353882 Kcal/mole
 H      0.0689912674     1.9045854359     0.1287096736
 F     -0.4617915050     2.6247120807     0.3301451819
 H     -0.7622705313     2.9160060026    -1.3836752048
 F     -0.6172459149     2.6771539240    -2.2570631743
 H      0.4629004606     1.3883344399    -1.7401083366
 F      0.8352376033     0.9051001093    -1.0554634404
          6
Energy: -16.83289070450172 Kcal/mole
 H     -0.2349135223     1.7202581685     0.0941124003
 F     -0.5836005230     2.5305497479     0.3445798271
 H     -0.7342815493     3.0083915388    -1.3081043824
 F     -0.6299439803     2.8653280790    -2.2078462999
 H      0.0988636970     1.3022686560    -1.8135062498
 F      0.3456645824     0.6780064489    -1.1887862968
          6
Energy: -16.843494706014894 Kcal/mole
 H      0.1115220694     1.9495133031     0.0978530085
 F     -0.3543917523     2.6855377426     0.3843514121
 H     -1.1266086899     2.8385358961    -1.1729231556
 F     -1.2248781736     2.5481489080    -2.0371612627
 H     -0.0297524663     1.2675905529    -1.7648096985
 F      0.5228129445     0.8275710411    -1.1800505207
          6
Energy: -16.830978285971412 Kcal/mole
 H     -0.3546050168     1.5505079744     0.3342694410
 F     -0.8458327644     2.2587287082     0.6473312435
 H     -1.3516234214     2.5744024747    -1.0152961912
 F     -1.3621449644     2.3505319856    -1.9044870038
 H     -0.3229486827     1.0233824311    -1.5582203300
 F      0.1567177630     0.5159919982    -0.9637760102
          6
Energy: -16.851074589054633 Kcal/mole
 H     -0.6779663946     1.3130699106     0.4400900298
 F     -1.2216958464     2.0043910960     0.6995554454
 H     -1.5629435753     2.4035042058    -0.9727598537
 F     -1.4600485923     2.2084397522    -1.8628449516
 H     -0.4392885282     0.8777368089    -1.4511801725
 F      0.0099487710     0.3494869862    -0.8511576948
          6
Energy: -16.855218097255374 Kcal/mole
 H     -0.3896793390     1.4137431419     0.3810773720
 F     -0.7813720963     2.1902387899     0.6718011113
 H     -1.4883351401     2.4256131642    -0.9161459496
 F     -1.6108387544     2.1199524409    -1.7719808558
 H     -0.6250317992     0.7249575813    -1.4187307113
 F     -0.0834109831     0.2472753924    -0.8536151320
          6
Energy: -16.847743245130687 Kcal/mole
 H     -0.2899119579     1.3883719232     0.2597190905
 F     -0.5503715604     2.2348461204     0.4974820588
 H     -1.5375781231     2.3624310178    -0.9647730154
 F     -1.8560919932     1.9759107093    -1.7329136052
 H     -0.9109803874     0.5186147321    -1.4128344955
 F     -0.3101475823     0.0645885857    -0.8896240230
          6
Energy: -16.84398003760134 Kcal/mole
 H     -0.3130161981     1.3098277015     0.1897239332
 F     -0.7614065837     2.0092796487     0.5777987143
 H     -1.7880323377     2.0878503412    -0.8224437273
 F     -2.0513866249     1.7870120834    -1.6476890618
 H     -0.7719719476     0.6088733780    -1.5978509778
 F     -0.0958810055     0.2003606742    -1.1321177829
          6
Energy: -16.859950673554977 Kcal/mole
 H      0.0326855346     1.7704331682    -0.1688109574
 F     -0.2800939721     2.5824095699     0.1205889445
 H     -1.5930502462     2.4692610564    -1.0470458395
 F     -2.0315481463     1.9937206725    -1.6970227121
 H     -0.8610676525     0.7334881620    -1.5897230296
 F     -0.1044707188     0.3732157654    -1.2173604641
          6
Energy: -16.823413668910575 Kcal/mole
 H     -0.0428306914     1.6795009820    -0.0646748493
 F     -0.2909497938     2.5332287323     0.1599912127
 H     -1.7307467839     2.3065007485    -0.8282444945
 F     -2.2372751350     1.7632325267    -1.3659969178
 H     -1.0300616567     0.5311721602    -1.2410510979
 F     -0.2350163699     0.2131136998    -0.9129797526
          6
Energy: -16.85801786828665 Kcal/mole
 H     -0.1959796834     1.4432368421     0.2609484089
 F     -0.4332780387     2.2837567478     0.5404207305
 H     -1.6212668491     2.3885933404    -0.7751381391
 F     -2.0123932515     1.9997686083    -1.5077529526
 H     -1.0331463180     0.5530079643    -1.2839130253
 F     -0.3886995442     0.0988109239    -0.8156370337
          6
Energy: -16.839735640551226 Kcal/mole
 H     -0.2296143779     1.5363188295     0.2200671780
 F     -0.4093196030     2.4246167138     0.3597879737
 H     -1.5711031713     2.3794373118    -0.9302376471
 F     -2.0175468476     1.9015902690    -1.5730745218
 H     -1.0940158226     0.5010575544    -1.1796533208
 F     -0.4554393885     0.0792390732    -0.6745015548
          6
Energy: -16.840670537037795 Kcal/mole
 H     -0.2296553327     1.5001432289     0.3055524133
 F     -0.5396020870     2.3168453445     0.5845141738
 H     -1.6853549726     2.3453218849    -0.7383066284
 F     -2.0449264457     1.9579558531    -1.4876696334
 H     -0.9161148925     0.6019898027    -1.3087688731
 F     -0.2430298404     0.2051797510    -0.8287821071
          6
Energy: -16.84144876625544 Kcal/mole
 H      0.2076478115     1.7401440233     0.1022475395
 F     -0.1363555680     2.5416647689     0.3852937710
 H     -1.5936722486     2.3062005117    -0.5440052155
 F     -2.0911588857     1.7951577973    -1.1204003838
 H     -0.8031735700     0.5620460808    -1.1289554140
 F      0.0216077472     0.2807119389    -0.8435156141
          6
Energy: -16.84485005234376 Kcal/mole
 H      0.0757733845     1.5848822751     0.1713768201
 F     -0.1400254683     2.4446585455     0.4061205528
 H     -1.4635488409     2.4345090789    -0.7104875437
 F     -1.9634629231     2.0121897910    -1.3528436206
 H     -0.9345717402     0.5727144096    -1.2040041176
 F     -0.2128560290     0.1773653242    -0.7993875919
          6
Energy: -16.844363353755284 Kcal/mole
 H     -0.2298789726     1.5010169163     0.4002263203
 F     -0.5364398613     2.3090667636     0.7067632119
 H     -1.5168171091     2.4863195683    -0.7072707718
 F     -1.7899446334     2.1844277236    -1.5289469060
 H     -0.8213296882     0.7711765827    -1.3361428735
 F     -0.2157019522     0.2698382468    -0.8641641470
          6
Energy: -16.810270591572873 Kcal/mole
 H     -0.1205462643     1.5050022159     0.3278940538
 F     -0.4550576638     2.2846168814     0.6760206068
 H     -1.3482813384     2.5841199020    -0.7719108986
 F     -1.6313317855     2.3401885892    -1.6093289298
 H     -0.7311206219     0.8239157075    -1.4671894796
 F     -0.1505499198     0.3122392806    -0.9752404029
          6
Energy: -16.84208790420263 Kcal/mole
 H     -0.3609060182     1.2413309270     0.4404393149
 F     -0.6086220557     2.0439057836     0.8084058408
 H     -1.3818016148     2.5154391433    -0.6938698665
 F     -1.6010694051     2.2912523566    -1.5555838103
 H     -0.7644500045     0.7675872709    -1.4196719467
 F     -0.2798967067     0.1694955960    -0.9212911183
          6
Energy: -16.85765649017918 Kcal/mole
 H     -0.6451265641     1.1901589447     0.5112989910
 F     -0.8566451383     2.0264745030     0.8223057109
 H     -1.4709441059     2.4689399201    -0.7553019720
 F     -1.6407664569     2.2688941165    -1.6339549442
 H     -0.9615455053     0.6493096746    -1.3958231749
 F     -0.5771713542     0.0404136665    -0.8280281739
          6
Energy: -16.847707017141943 Kcal/mole
 H     -0.9043640586     1.0784057199     0.5705080857
 F     -1.0345181509     1.9288814570     0.8877460610
 H     -1.7957593263     2.3877813320    -0.5901112186
 F     -2.0540027226     2.1958449822    -1.4488077808
 H     -1.4465406337     0.5850696901    -1.2620213691
 F     -1.0362494990    -0.0625863710    -0.7589390583
          6
Energy: -16.85403844962542 Kcal/mole
 H     -1.0464116090     1.0781863067     0.5427551437
 F     -1.2833871572     1.8989611537     0.8760121617
 H     -1.8975064540     2.3707776655    -0.6825453824
 F     -2.0626547431     2.1862886668    -1.5654830088
 H     -1.4113832711     0.5835585676    -1.3688408230
 F     -1.0131272042    -0.0467335370    -0.8349747648
          6
Energy: -16.85205091229267 Kcal/mole
 H     -1.1231020673     1.0972183807     0.5972831927
 F     -1.2913360127     1.9485211342     0.8937118713
 H     -1.8776790843     2.4191267549    -0.6737221700
 F     -2.0625890398     2.2090450424    -1.5469706927
 H     -1.4961551399     0.5664683269    -1.2983926740
 F     -1.1362016734    -0.0653039497    -0.7396563387
          6
Energy: -16.846673268857103 Kcal/mole
 H     -1.3386535318     0.9506569690     0.5617924630
 F     -1.3081149581     1.8107074515     0.8784461588
 H     -1.6843347133     2.4197523587    -0.7073817649
 F     -1.9028338169     2.2803801804    -1.5869967589
 H     -1.7624613854     0.5623229201    -1.3157088146
 F     -1.6081060165    -0.1642773911    -0.7780142843
          6
Energy: -16.85194660195816 Kcal/mole
 H     -1.4928991213     0.9452687326     0.6593592419
 F     -1.2756716871     1.7950888047     0.9267673327
 H     -1.4962904689     2.3662192396    -0.7185313046
 F     -1.7104138085     2.2232900467    -1.5986514335
 H     -1.9463979680     0.5100069581    -1.2379962773
 F     -1.9299164917    -0.1671192417    -0.6198397676
          6
Energy: -16.86525353938049 Kcal/mole
 H     -1.1878732121     0.9464370264     0.4937518669
 F     -1.0260608794     1.8068525563     0.7664987917
 H     -1.5424280520     2.3845874856    -0.8006322394
 F     -1.8430957497     2.2122509373    -1.6496246125
 H     -1.8725116231     0.5018575375    -1.2899907235
 F     -1.7351077561    -0.1829096850    -0.6957659948
          6
Energy: -16.86452108752053 Kcal/mole
 H     -1.3214080286     1.0129557752     0.6185758552
 F     -1.1411894804     1.8898288309     0.8173317837
 H     -1.6513545518     2.3676368495    -0.7890320610
 F     -1.9615146963     2.1517003811    -1.6245325855
 H     -2.0149626106     0.4865775126    -1.1609210658
 F     -1.8740955559    -0.1864198936    -0.5541921608
          6
Energy: -16.85701337302254 Kcal/mole
 H     -1.2588002631     1.0089080255     0.5886618519
 F     -1.1720729011     1.8946340316     0.8096976112
 H     -1.6796399712     2.3660948253    -0.7755882029
 F     -1.9696395931     2.1480725934    -1.6177613001
 H     -1.8705121418     0.4721390743    -1.2148538271
 F     -1.6914264805    -0.1965641094    -0.6134775905
          6
Energy: -16.86058621292318 Kcal/mole
 H     -1.0421265990     1.0368015659     0.5017640145
 F     -1.0169711793     1.9216189016     0.7412519838
 H     -1.7535079163     2.3650241378    -0.7706419888
 F     -2.0988246347     2.1152486374    -1.5825887625
 H     -1.7424661363     0.4352221072    -1.2287777436
 F     -1.4032449550    -0.2008490864    -0.6620049259
          6
Energy: -16.865917183396846 Kcal/mole
 H     -1.0293291726     1.0064695691     0.5105171048
 F     -1.0605378094     1.8789567463     0.7910187032
 H     -1.8749624656     2.3344468934    -0.6787281018
 F     -2.2364051756     2.1272135825    -1.4956139704
 H     -1.7515075476     0.4686728547    -1.2471158843
 F     -1.3703178544    -0.1862956448    -0.7307829660
          6
Energy: -16.86762466537806 Kcal/mole
 H     -1.0418120793     1.0164565906     0.5177411422
 F     -1.0782483638     1.8895767547     0.7956306458
 H     -1.8953153862     2.3443813390    -0.6798276816
 F     -2.2476627144     2.1194450885    -1.4960041597
 H     -1.8111625191     0.4461590792    -1.2146292968
 F     -1.4290861916    -0.1929310183    -0.6793998813
          6
Energy: -16.863431036094198 Kcal/mole
 H     -1.2044579835     0.9842703318     0.5378508356
 F     -1.2368460080     1.8518207758     0.8331409353
 H     -1.8241580619     2.3257234925    -0.7470977775
 F     -2.0852692616     2.1088952879    -1.5989753926
 H     -1.7138161991     0.4409247404    -1.2776950222
 F     -1.4132168271    -0.2058849167    -0.7013563327
          6
Energy: -16.87093228049116 Kcal/mole
 H     -1.1564388897     1.0259459496     0.5455363782
 F     -1.1929537428     1.9020854408     0.8137438677
 H     -1.7422100446     2.3529555565    -0.7897698405
 F     -1.9662847917     2.1194713001    -1.6477701958
 H     -1.6490321866     0.4306204268    -1.2651745483
 F     -1.3822208964    -0.2078819822    -0.6634973847
          6
Energy: -16.8674954026078 Kcal/mole
 H     -1.1541294855     1.0018380629     0.5468557891
 F     -1.1782416437     1.8775316399     0.8179062697
 H     -1.7259970692     2.3413546506    -0.7821512843
 F     -1.9551395993     2.1147107078    -1.6406471923
 H     -1.6071188055     0.4376759639    -1.2780957463
 F     -1.3380414362    -0.2036583928    -0.6804532008
          6
Energy: -16.85523102142224 Kcal/mole
 H     -1.0678068843     1.0298456118     0.5246487720
 F     -1.0861417452     1.9124557978     0.7727457136
 H     -1.6968626520     2.3375936219    -0.7885389683
 F     -1.9379616917     2.1065349135    -1.6425718285
 H     -1.6365053084     0.4455443380    -1.2570208301
 F     -1.3627316183    -0.2088801767    -0.6759308878
          6
Energy: -16.864700107859505 Kcal/mole
 H     -1.0728113697     1.0401500663     0.5178868546
 F     -1.0904112415     1.9169330507     0.7858996207
 H     -1.6736106209     2.3714853770    -0.8031400759
 F     -1.9422122534     2.1182281084    -1.6425463654
 H     -1.6430339928     0.4383793432    -1.2636045658
 F     -1.3587144199    -0.1980588174    -0.6677876072
          6
Energy: -16.872893874404326 Kcal/mole
 H     -1.0534510229     1.0377172208     0.5381467176
 F     -1.0689482751     1.9220295631     0.7803047578
 H     -1.6715103703     2.3597088313    -0.8003536630
 F     -1.9423236669     2.1188528269    -1.6426941782
 H     -1.6154370071     0.4471156829    -1.2629890269
 F     -1.3477089628    -0.2007870473    -0.6718606598
          6
Energy: -16.87228106946492 Kcal/mole
 H     -1.0765576609     1.0338055611     0.5283340555
 F     -1.0931818412     1.9125022262     0.7900682860
 H     -1.6788664231     2.3493743500    -0.7951511786
 F     -1.9419334453     2.1194010473    -1.6429701580
 H     -1.6335278487     0.4373164438    -1.2651546804
 F     -1.3467492854    -0.2002672203    -0.6717457769
          6
Energy: -16.87332960940563 Kcal/mole
 H     -1.0790781711     1.0311653672     0.5372234151
 F     -1.0930481340     1.9126422824     0.7895967261
 H     -1.6914672677     2.3582446518    -0.7937960108
 F     -1.9412649996     2.1189304983    -1.6430420465
 H     -1.6229653741     0.4486736957    -1.2577950289
 F     -1.3473096003    -0.2008696963    -0.6721361894
          6
Energy: -16.871460215529623 Kcal/mole
 H     -1.0804890540     1.0383451794     0.5213855453
 F     -1.0971802135     1.9167911745     0.7839556099
 H     -1.6752833055     2.3582769442    -0.7987430327
 F     -1.9421235214     2.1189287852    -1.6427796184
 H     -1.6307118267     0.4330546441    -1.2710407536
 F     -1.3468986689    -0.2000411417    -0.6714335343
          6
Energy: -16.875306129122066 Kcal/mole
 H     -1.0893534197     1.0359909729     0.5289826267
 F     -1.0967099794     1.9169160597     0.7835526023
 H     -1.6960404733     2.3545941884    -0.7969122887
 F     -1.9570030741     2.1162599505    -1.6430708507
 H     -1.6252339055     0.4384899336    -1.2678334481
 F     -1.3471892600    -0.2003294713    -0.6716036744
          6
Energy: -16.876556985381626 Kcal/mole
 H     -1.0766470161     1.0367337452     0.5271217284
 F     -1.0973840248     1.9168766574     0.7836513186
 H     -1.6985303912     2.3558856043    -0.7965131194
 F     -1.9568709897     2.1161914439    -1.6430920257
 H     -1.6288077440     0.4401350155    -1.2643800378
 F     -1.3469996761    -0.2004167390    -0.6717868699
          6
Energy: -16.876731553082323 Kcal/mole
 H     -1.0755941167     1.0356648037     0.5309083882
 F     -1.0974398786     1.9169333622     0.7834504451
 H     -1.6944961133     2.3535285200    -0.7970906305
 F     -1.9570849989     2.1163164818    -1.6430613901
 H     -1.6281455875     0.4389231029    -1.2660008906
 F     -1.3470348020    -0.2003524499    -0.6717008874
          6
Energy: -16.87711410521223 Kcal/mole
 H     -1.0798133381     1.0357210629     0.5303847826
 F     -1.0972160587     1.9169303778     0.7834782211
 H     -1.6942607280     2.3554031813    -0.7976917997
 F     -1.9570974855     2.1162170353    -1.6430294994
 H     -1.6277476889     0.4398506538    -1.2651898697
 F     -1.3470559096    -0.2004016543    -0.6717439101
