          6
Energy: -16.55060958671112 Kcal/mole
 H      4.0195921813     0.9053903492    -3.1701861950
 F      4.2051825651     1.5555517466    -2.5507224213
 H      5.6625340673     1.9870435372    -3.4360227412
 F      6.1637635586     1.9246261203    -4.2013736824
 H      5.1483874319     0.5888094057    -4.8332855674
 F      4.4954962087    -0.0277240084    -4.6475206624
          6
Energy: -16.281073572632295 Kcal/mole
 H      5.8201577416     2.3185325007    -2.2296521711
 F      5.5161830337     2.4547540131    -3.0840127955
 H      5.4100857213     4.1310400644    -2.7565231884
 F      5.3827134441     4.8637294140    -2.2057908801
 H      5.9370134748     3.7043584643    -0.8026340103
 F      6.0787601743     2.8357240242    -0.5452023054
          6
Energy: -16.331209713041346 Kcal/mole
 H      4.4819730513    -0.3145437052    -0.3573417122
 F      4.0476979634    -0.7434112538     0.3270315586
 H      3.6482075594     0.7983063907     1.1989412539
 F      3.5449954722     1.7087403125     1.1622487591
 H      4.3432635200     1.7547606706    -0.3535183168
 F      4.6836977570     1.3491417430    -1.1021616336
          6
Energy: -16.487716824472557 Kcal/mole
 H      5.8480865086     0.7035292336    -0.7979266846
 F      5.2435390421     0.1087745627    -1.1467507695
 H      4.2206539833     0.2052054831     0.2462100165
 F      4.0348886447     0.3649435116     1.1298751121
 H      5.6079773465     1.1972737282     1.2106385959
 F      6.3387316368     1.5238008894     0.7631263835
          6
Energy: -16.58119097678724 Kcal/mole
 H      6.1743809378     0.5983022183    -1.6999765499
 F      5.5653489270    -0.0870824364    -1.7147035622
 H      5.4038011942    -0.1360662248    -0.0276268612
 F      5.5251853958     0.1899570050     0.8208209741
 H      6.5970190987     1.4756624760     0.1331281076
 F      6.9788968467     1.7875009810    -0.6400569494
          6
Energy: -16.804210210867325 Kcal/mole
 H      3.5277668394     3.5255568121     1.9016145478
 F      2.9031865009     3.3256799415     2.5425807227
 H      4.1347591547     2.5874204768     3.5321002454
 F      4.9961359595     2.3274871171     3.7091698607
 H      5.4600064637     2.9817285170     2.1389713300
 F      5.2298278761     3.4606191078     1.3915955076
          6
Energy: -15.893709332244043 Kcal/mole
 H      6.9301234212     1.8653014467     2.5118005663
 F      6.4098006661     1.2425187347     2.9387606630
 H      5.5217804339     2.4675062180     3.5379212478
 F      5.2839623940     3.3030212345     3.8315983442
 H      6.6146338259     3.9792735625     2.8931135863
 F      7.2960665338     3.6826705980     2.3559309861
          6
Energy: -16.395490175201758 Kcal/mole
 H      3.8931376148     1.9694762622     2.2044375867
 F      3.1448127819     1.9993731086     1.6752824837
 H      2.0773591452     2.5204391911     2.8994762456
 F      1.8009185297     2.6777928985     3.7595398461
 H      3.4293504934     2.3319680637     4.1713408914
 F      4.3128479821     2.1882560182     3.9721725318
          6
Energy: -16.560411461694684 Kcal/mole
 H     -1.0605575300     3.8092281997     2.2071361096
 F     -0.7172529233     4.5915168881     2.5403857981
 H      0.8970992400     3.8081193472     2.7633045743
 F      1.4398554738     3.1026937059     2.5426706344
 H      0.1107137152     2.3134364489     1.8510526929
 F     -0.7734541364     2.1528335900     1.6684522221
          6
Energy: -16.347706473267408 Kcal/mole
 H     -0.0107214284     4.3473138702     0.8351172569
 F     -0.2556505002     5.1371040963     0.4387208030
 H      0.2875934947     6.1272333468     1.8016984091
 F      0.6046883072     6.1046106121     2.6618310104
 H      0.7403196210     4.2333771741     2.7344653443
 F      0.5209771990     3.4767809012     2.2650614865
          6
Energy: -16.53077435794296 Kcal/mole
 H     -1.4263085554     4.6873625883     2.6565923808
 F     -2.1915266984     5.1646046688     2.8226351169
 H     -1.2137815888     6.6924771445     2.3460404632
 F     -0.3964114628     7.0304181224     2.1039847411
 H      0.3965815908     5.4444755912     2.1210314756
 F      0.2811460115     4.5471301939     2.2704800120
          6
Energy: -16.36576956762883 Kcal/mole
 H     -0.5170935714     4.4454724732     4.7260056773
 F     -1.3359578306     4.1368250521     4.4519854328
 H     -1.5705710040     5.6163953268     3.6637394986
 F     -1.3578983867     6.4770333738     3.4293007861
 H      0.2504085999     6.3157460380     4.2437233861
 F      0.8385609879     5.7592454163     4.6741566869
          6
Energy: -16.628452114507468 Kcal/mole
 H      0.7015062917     5.7719507305     5.7648851469
 F      0.5187580799     5.0359227024     5.2493710026
 H     -1.1664020319     5.4795559388     5.0491821777
 F     -1.8205104893     6.1052520690     5.1959318921
 H     -0.7528114149     7.2028161167     6.1329282183
 F      0.0910144722     7.3416362865     6.4639506236
          6
Energy: -16.274199085704595 Kcal/mole
 H     -1.3515599599     4.9422514960     5.6192401230
 F     -1.0986874974     4.1669223866     6.0385363068
 H     -0.4956108623     3.4157781586     4.5135394523
 F     -0.2962425300     3.4799538243     3.6207781449
 H     -0.8127026922     5.1566029991     3.7524581449
 F     -1.1735519619     5.9226615774     4.1043545207
          6
Energy: -16.648459751302823 Kcal/mole
 H      0.1841483160     6.6334206566     4.1972122489
 F     -0.3125978731     6.0584814267     3.6838146393
 H     -1.1742768247     5.4204434419     5.1054950007
 F     -1.2728895770     5.5007555289     6.0136329273
 H      0.0997573589     6.6125180074     6.1369215875
 F      0.7132951537     7.1833257342     5.7645791197
          6
Energy: -16.685448522831223 Kcal/mole
 H     -1.6040293710     5.3806975194     6.0663729664
 F     -0.8242896717     4.9876268999     6.3463559827
 H     -0.2242088906     5.0406549577     4.7408375494
 F     -0.3206567296     5.2621915268     3.8562425217
 H     -1.9831384875     5.9645125063     4.2679589821
 F     -2.6213806890     6.0755024192     4.9169714099
          6
Energy: -16.157560565942276 Kcal/mole
 H      1.1973749788     3.5727506422     1.2901359244
 F      1.2100549547     2.6649277381     1.4189217666
 H     -0.0187747624     2.8276732429     2.9600021721
 F     -0.4561492326     3.4447161876     3.4785102022
 H      0.0637056399     4.8104645235     2.3642749235
 F      0.5241512120     5.1512575095     1.6482169539
          6
Energy: -16.562328310888688 Kcal/mole
 H      0.3963971269     4.5649168176     3.1261568044
 F     -0.5040801777     4.4057613967     3.1947073395
 H     -0.9242330722     5.7230560888     2.0486951303
 F     -0.5891211122     6.4529846917     1.6062098662
 H      0.9775108620     6.0332847727     2.0771293565
 F      1.6432448901     5.5295646152     2.4565410151
          6
Energy: -16.641932633738236 Kcal/mole
 H      0.8244055063     3.9314925722     0.6953864431
 F      0.5730413240     3.5057259949    -0.0769009836
 H      0.0907455838     5.0015716951    -0.7107218665
 F     -0.0745681502     5.9014649401    -0.6494640751
 H      0.6273274092     5.8119387118     1.0255813411
 F      1.0674082611     5.3123885055     1.6561901225
          6
Energy: -16.453847274557916 Kcal/mole
 H     -0.2651443250     4.2405537306     0.8108990675
 F     -0.6995201757     5.0343029701     0.9597908572
 H     -0.6611105854     5.6030772064    -0.6341450921
 F     -0.4259626909     5.4847629862    -1.5125505868
 H      0.1669491716     3.8770954903    -1.2011108249
 F      0.3888712450     3.2017672454    -0.6218256144
          6
Energy: -16.70405368013502 Kcal/mole
 H     -0.9465125076     3.7682678961     1.3036401146
 F     -0.2443943932     4.3356925897     1.1425551353
 H     -0.8260304745     4.6749093405    -0.5019450264
 F     -1.4804992586     4.5894064916    -1.1385366329
 H     -2.3145786060     3.5493516025    -0.0330221771
 F     -2.4256393824     3.0957238806     0.7561396528
          6
Energy: -16.557258990551873 Kcal/mole
 H     -2.1028849504     5.7614710973     2.0447336426
 F     -2.2783265620     6.0377952590     2.9013281782
 H     -3.7173743758     7.0178420970     2.2483673372
 F     -4.2047483603     7.2726162233     1.5145787138
 H     -3.2613774824     6.3082911142     0.5581562332
 F     -2.5773950351     5.7240138119     0.3801757687
          6
Energy: -16.602247761194292 Kcal/mole
 H     -1.2698542447     6.7107227071     2.9268641600
 F     -0.7482412038     6.5516283230     2.1896411189
 H     -0.3807469934     4.9123509801     2.8516417668
 F     -0.5233447243     4.3172416191     3.5345764165
 H     -1.4509013066     5.5057230206     4.3989900266
 F     -1.9620149969     6.2666642080     4.4238959479
          6
Energy: -16.803123136253532 Kcal/mole
 H      0.3066697663     4.3541677192     0.8142192583
 F     -0.2212636469     4.9904597447     0.4175988233
 H     -1.3495672825     4.8105881363     1.7771620618
 F     -1.6110971736     4.4048966187     2.5568450157
 H     -0.1140780989     3.4478496206     2.5243362389
 F      0.6598497287     3.2171406887     2.0899422860
          6
Energy: -16.634429739726613 Kcal/mole
 H      2.6543330554     4.5146338899     1.4100846510
 F      2.7978227097     3.6992760961     1.0157606888
 H      1.2043994415     3.0560555325     1.7577609969
 F      0.4891912720     3.2307747490     2.3044231135
 H      1.0207961309     4.8418515485     2.5548107588
 F      1.5967931612     5.5485853627     2.4566082286
          6
Energy: -16.705584835570505 Kcal/mole
 H      3.8358924895     4.9868162584     3.2879438312
 F      4.6154309805     4.5325972094     3.1239505489
 H      4.1443060569     3.2450996442     4.2203744448
 F      3.5726838928     2.8112208443     4.7912389546
 H      2.4432363887     4.1564380251     4.5353227706
 F      2.2956898587     4.9923520270     4.1883835787
          6
Energy: -16.683561321742502 Kcal/mole
 H      5.8164591667     2.8052133191     4.8833005758
 F      5.8864127269     3.0084464207     3.9918456942
 H      4.2285638098     2.6148544723     3.7788436789
 F      3.4170312422     2.4044200082     4.1503557621
 H      4.0878277845     2.3274077836     5.7847784825
 F      4.8545827547     2.3955135153     6.2831131342
          6
Energy: -16.71596438783547 Kcal/mole
 H      4.2991949711     1.9309393237     4.0006754860
 F      3.5722024080     2.3901172490     3.6820433374
 H      3.5874156187     1.2527254751     2.3841370554
 F      3.9425192196     0.5067924563     1.9861742881
 H      5.1693262331     0.3817366963     3.2367798064
 F      5.5420292878     0.7237383933     4.0016433709
          6
Energy: -16.592594019239698 Kcal/mole
 H      5.7270634267     2.0174061433     3.3500125853
 F      6.0124266292     2.8477549896     3.0854797215
 H      6.6075163682     2.1249709185     1.5088950892
 F      6.6382400002     1.3291472796     1.0543515884
 H      5.9321959340     0.3843720402     2.4010506140
 F      5.4921495110     0.3674024562     3.2053889625
          6
Energy: -16.738775415330508 Kcal/mole
 H      6.0547360819     1.9882901386     3.9996541217
 F      6.8244418212     2.4664511068     3.8589268558
 H      6.8385971795     2.0310406936     2.1479314550
 F      6.4639395235     1.5969503332     1.4323294708
 H      5.2347557728     0.8924288680     2.5532827639
 F      4.8775549884     0.8329473802     3.3957544562
          6
Energy: -16.770622110945453 Kcal/mole
 H      6.8044010151     0.1262412946     3.3446343727
 F      6.8310646681     1.0062730538     3.0882710516
 H      7.1094638683     0.5338380308     1.4318378197
 F      7.3069512794    -0.0928861393     0.7922250172
 H      7.1709260168    -1.3416275691     2.0280293052
 F      6.9662965470    -1.6023577507     2.8830354762
          6
Energy: -16.715257076739704 Kcal/mole
 H      3.5866991773     0.6137528769     2.0217237506
 F      3.4725562743     1.1242492779     2.7748862977
 H      4.9230021203     2.0060147420     2.3776536120
 F      5.7110220516     2.1505492989     1.9315332809
 H      5.2227007350     0.8492922323     0.8444006023
 F      4.5980111258     0.2142336021     0.6267944712
          6
Energy: -16.31452373940988 Kcal/mole
 H      3.7340598683     1.3976954193     3.8602431339
 F      3.8483340474     2.1628164194     4.3526050610
 H      5.1371517108     2.6877381533     3.0447536457
 F      5.4645684506     2.4727566400     2.2156154018
 H      4.4881091212     0.9177122018     2.1174123436
 F      3.8895299175     0.3282050171     2.4849354260
          6
Energy: -16.539995003750107 Kcal/mole
 H      3.8767378784     3.4031177957     3.8780596548
 F      4.4788024727     3.9617054334     3.4701539361
 H      5.7411653604     2.8228192231     3.3331322970
 F      6.0637265748     1.9810110780     3.5010677303
 H      4.5879406283     1.5491597583     4.2780324305
 F      3.7116195704     1.6639116861     4.5225368240
          6
Energy: -16.679296319863738 Kcal/mole
 H      4.5858470598     4.3441279802     5.1549535891
 F      4.4620853835     4.2304403806     4.2534841347
 H      6.2220909225     3.8156609580     4.1085744036
 F      7.0545015549     3.7440308828     4.4865303156
 H      6.4142967227     4.1825650820     6.0896574798
 F      5.6663975565     4.4148809306     6.5666954066
          6
Energy: -16.513490481886777 Kcal/mole
 H      6.0792360447     4.0536244887     5.2458855469
 F      6.5727694740     3.4911139504     4.7158896521
 H      5.8460466154     2.0849557397     5.5446105431
 F      5.2813537591     1.6893981618     6.1492138681
 H      4.9138812378     3.2478400044     6.6275586919
 F      4.9703180394     4.1612597062     6.5695213277
          6
Energy: -16.681825179243447 Kcal/mole
 H      5.8068481048     4.9798067236     5.2282443238
 F      6.4928580200     4.3857582673     5.3600996525
 H      5.3148801112     3.0573135894     5.4973162847
 F      4.4607964130     2.7257361970     5.5358710420
 H      3.8489175362     4.3449952539     5.3696981781
 F      3.9835882275     5.2414838013     5.2316362744
          6
Energy: -16.685475263509716 Kcal/mole
 H      5.2647243310     2.1092796131     3.3217204054
 F      5.2870867464     1.5670539497     4.0608957920
 H      3.5638587648     2.0778559940     4.3394024504
 F      2.8397386144     2.5646300505     4.0572854077
 H      3.6760567390     3.1061535451     2.6753620810
 F      4.4409537402     3.1498197628     2.1714624492
          6
Energy: -16.679411769518993 Kcal/mole
 H      5.2315686800     0.7036118878     3.0135185751
 F      5.1825390788    -0.1985207117     3.1704958700
 H      3.4119338917    -0.1925610452     2.9408672963
 F      2.6574867954     0.2743344117     2.7091191331
 H      3.6513582666     1.8227868741     2.4708125298
 F      4.4722479024     2.2188445172     2.5716467959
          6
Energy: -16.829699620923066 Kcal/mole
 H      2.2168382832     2.0046520857     5.3690596540
 F      2.0768016949     1.3152592533     5.9572911361
 H      1.4202376680     0.3509881700     4.6516045809
 F      1.1860148355     0.3068388376     3.7661219434
 H      1.7775130582     1.9329778500     3.4750315946
 F      2.1842096465     2.6969469965     3.7780794922
          6
Energy: -16.775338323404014 Kcal/mole
 H      1.2241638254     2.3733359027     5.5563180220
 F      0.3469675458     2.1212690399     5.4675600148
 H      0.7158238780     1.5586402810     3.8596773905
 F      1.2849142116     1.5058023281     3.1425767400
 H      2.5391725070     2.2250170456     4.1374423166
 F      2.8010951409     2.6134452020     4.9257373763
          6
Energy: -16.8403059181573 Kcal/mole
 H      0.6386136082     1.8731910553     4.9476308680
 F      0.2977221262     1.0310612439     4.8231343687
 H      1.6657799206     0.6290908479     3.8351174335
 F      2.4351143149     0.8789341573     3.4031545757
 H      2.3470529582     2.4596695064     4.1630053620
 F      1.8917960827     3.0559194227     4.6903726103
          6
Energy: -16.72765751887391 Kcal/mole
 H      0.7631422931     1.3782990568     3.8349889382
 F      0.2415564613     0.6887234028     3.5295013975
 H      1.1268480892     0.7506353156     1.9721208077
 F      1.8135018452     1.0878869889     1.4664955233
 H      2.1374001884     2.2599675388     2.6992269216
 F      2.0152747464     2.6228434049     3.5324708728
          6
Energy: -16.66684714600234 Kcal/mole
 H      0.8598594433     0.6392916619     3.2230012350
 F      0.4316018383     1.1742359934     2.6136417468
 H      1.8571187969     1.1224935228     1.5930392681
 F      2.7032331534     0.8055381192     1.4364545692
 H      2.7858403953     0.0692930179     2.9824020457
 F      2.4069616177    -0.1817404353     3.7788454381
          6
Energy: -16.796043372394138 Kcal/mole
 H      0.6445286832     1.0837505867     3.6278859980
 F      0.3788135330     1.7136884564     3.0167700195
 H      1.9271342617     1.5698672747     2.1134321629
 F      2.7493428173     1.1667866925     2.0645636101
 H      2.4410871533     0.2216202641     3.4564372869
 F      1.9216085193    -0.0300998183     4.1689454966
          6
Energy: -16.82099917511374 Kcal/mole
 H      1.0157190181     1.3309147160     3.8290330077
 F      0.7857991464     1.8665880234     3.1211629912
 H      2.2014784034     1.3082122947     2.2468493540
 F      2.9511166579     0.7801022181     2.2524381247
 H      2.5509684269     0.1705001168     3.8284783020
 F      2.0019560339     0.1323645135     4.5619768146
          6
Energy: -16.82368540928951 Kcal/mole
 H      0.9849864496     0.9223941249     3.8171715278
 F      0.9392655268     1.2801217640     2.9740644567
 H      2.6553888962     1.4071768845     2.9718261686
 F      3.4844892438     1.3080947753     3.3508569711
 H      2.6959617993     0.7039904516     4.7788951389
 F      1.9379676804     0.4611388720     5.2342598565
          6
Energy: -16.825443001823373 Kcal/mole
 H      1.3960584464     1.2293951865     3.5502070894
 F      1.4783122620     1.0850131337     2.6483882979
 H      3.0485366327     1.7702675525     2.7473748314
 F      3.7313416150     2.1468373058     3.2299321617
 H      2.7490383696     2.0217748631     4.6964408347
 F      1.9652758908     1.7477016507     5.0856570355
          6
Energy: -16.849007117603833 Kcal/mole
 H      1.2681009045     1.8698494935     2.7236316824
 F      1.6358238202     1.7307094557     1.8951940522
 H      3.1544238170     1.3713790383     2.6489306312
 F      3.6910786825     1.3079343899     3.3897850919
 H      2.3109585018     1.7192969519     4.4232438440
 F      1.4224708793     1.9400426494     4.4756850653
          6
Energy: -16.84203679621993 Kcal/mole
 H      1.5125339440     0.9957181452     2.8816503899
 F      1.8971230793     0.7855535438     2.0761623159
 H      3.3695620442     1.6114704600     2.6110457247
 F      3.8264034365     2.0589004213     3.2683062302
 H      2.4107371669     1.9816825044     4.3097363162
 F      1.5432620815     1.7112325080     4.4331574475
          6
Energy: -16.842020998038436 Kcal/mole
 H      1.3991910953     0.6822973511     3.3476332102
 F      1.7433985476     0.2924419045     2.5923697062
 H      3.1549440273     1.2926581807     2.7209952130
 F      3.6134108282     1.9819626893     3.1154017125
 H      2.3213164993     2.1670057622     4.2933584487
 F      1.5240251172     1.8724961057     4.6375669818
          6
Energy: -16.841572040672418 Kcal/mole
 H      1.3981883578     0.8036883045     3.1761183242
 F      1.7330078705     0.5348763696     2.3658559978
 H      2.7827229236     1.9430871313     2.3125405431
 F      3.0502591327     2.7305119916     2.6989023764
 H      1.9500002991     2.4870058676     4.0365488682
 F      1.3469969578     1.9621924993     4.4858226143
          6
Energy: -16.835525015922713 Kcal/mole
 H      1.4471694640     0.9506482469     2.9952050378
 F      1.6772675091     0.5974875742     2.1808209583
 H      2.9681412647     1.8115788352     2.0374208377
 F      3.4154640855     2.5299352368     2.3906281059
 H      2.3558466500     2.5224548805     3.7688641030
 F      1.6367294996     2.1735317375     4.2183217364
          6
Energy: -16.84316646278984 Kcal/mole
 H      1.5138345138     0.9540676183     3.1705364329
 F      1.9110875662     0.4697127185     2.5008504293
 H      3.0239924296     1.7616976786     2.2343631788
 F      3.3732677253     2.5811684803     2.4519944564
 H      2.1390396382     2.7868853061     3.6919213546
 F      1.4221011269     2.4308549468     4.1392808904
          6
Energy: -16.82454624722419 Kcal/mole
 H      1.5607178000     0.8368702274     3.2471679772
 F      2.1593670085     0.2346639222     2.9009661704
 H      3.2979646126     1.4708912584     2.5768994359
 F      3.5679465959     2.3471186730     2.5918743006
 H      2.0308818030     2.7638852693     3.3489994843
 F      1.2217256838     2.5126354705     3.6997542610
          6
Energy: -16.844949214747487 Kcal/mole
 H      1.7110040567     0.7636169289     3.4855347428
 F      2.3581983779     0.1442015449     3.2896952867
 H      3.2939721683     1.4137682540     2.4811560691
 F      3.3667763057     2.2857394284     2.2068299338
 H      1.8034861910     2.6363622392     2.9332651845
 F      1.0596239174     2.3496369011     3.3864169234
          6
Energy: -16.858082288633454 Kcal/mole
 H      1.6200294443     0.7796435505     3.4426274933
 F      2.2735236110     0.1493356068     3.3139951865
 H      3.2438661147     1.3403220820     2.4998671643
 F      3.3623680694     2.1968730118     2.1946348081
 H      1.7698238476     2.6369815534     2.7648883334
 F      1.0040255619     2.4000468094     3.2102016082
          6
Energy: -16.863018827641497 Kcal/mole
 H      1.6373130000     0.8190719114     3.4823529343
 F      2.2932664956     0.1859077096     3.3837775565
 H      3.2895892709     1.3638993005     2.5630357299
 F      3.4115245613     2.2181526397     2.2527584063
 H      1.8212550951     2.6774904791     2.8467923910
 F      1.0335792358     2.4320535598     3.2470628736
          6
Energy: -16.872536483356953 Kcal/mole
 H      1.6395153317     0.8174439862     3.4718325785
 F      2.2986130251     0.1881899907     3.3692721587
 H      3.2905408955     1.3768651288     2.5564301673
 F      3.4102480353     2.2304830037     2.2435472432
 H      1.8362262717     2.6702065541     2.8449608262
 F      1.0546854463     2.4400665919     3.2658153570
          6
Energy: -16.876966062242843 Kcal/mole
 H      1.6405665249     0.8167368984     3.4823501635
 F      2.2985572617     0.1882275001     3.3687142251
 H      3.2887266065     1.3770146869     2.5561383407
 F      3.4103442792     2.2304750700     2.2435627240
 H      1.8244539453     2.6694857547     2.8412511482
 F      1.0452364085     2.4420187890     3.2678279993
