          6
Energy: -16.87717989286716 Kcal/mole
 H     -0.6316135287     1.5036172471    -0.5749039681
 F     -0.8733027209     2.2213040792    -0.0577957151
 H     -2.5534519770     1.8903170517    -0.3899844658
 F     -3.1991862280     1.3830783826    -0.7981819790
 H     -1.9574610455     0.3638936649    -1.4855766587
 F     -1.0714677725     0.1538966903    -1.5942329556
