          6
Energy: -0.3576760657100593 Kcal/mole
 H     -4.7825765164    -4.6989226645     3.5255460437
 F     -3.8655765164    -4.6989226645     3.5255460437
 H      4.2019529154     1.7218763442     2.5964820365
 F      5.1189529154     1.7218763442     2.5964820365
 H      3.1541486547    -3.7596939498     1.3356485516
 F      2.7490107864    -2.9370443842     1.3356485516
