          6
Energy: -16.877285021177897 Kcal/mole
 H     -0.7486371180     1.3330071873    -0.3445330057
 F     -0.9911792316     2.1523110078    -0.0116612995
 H     -2.5019324219     2.0547173937    -0.8835290438
 F     -3.0679040889     1.6023662759    -1.4456175940
 H     -1.9092908994     0.2995911583    -1.5571196123
 F     -1.1007777056    -0.0673634860    -1.3279042018
