          6
Energy: -16.877123483142668 Kcal/mole
 H     -0.7391899893     1.4055585688    -0.3862564787
 F     -0.9964080876     2.2392801458    -0.1040576446
 H     -2.5129013629     2.0513909276    -0.9450849150
 F     -3.0759325245     1.5514854100    -1.4685153159
 H     -1.8890577776     0.2694416871    -1.5112982254
 F     -1.0693652321    -0.0630782256    -1.2695884025
