          6
Energy: -16.877212221047103 Kcal/mole
 H     -0.7545618074     1.3286482195    -0.3413170662
 F     -0.9969010652     2.1469272413    -0.0057874452
 H     -2.5072604164     2.0541251889    -0.8829713710
 F     -3.0714229824     1.6037548166    -1.4484588836
 H     -1.9135999361     0.3018001405    -1.5610001790
 F     -1.1061715427    -0.0671094574    -1.3310999876
