          6
Energy: -16.87502573574386 Kcal/mole
 H     -0.7535947745     1.3528743952    -0.3437124153
 F     -1.0109548089     2.1565579137     0.0151017635
 H     -2.5354049338     2.0420792663    -0.8331473413
 F     -3.0912768179     1.5836477990    -1.4003651462
 H     -1.9002063752     0.3110440358    -1.5540361598
 F     -1.0762467378    -0.0341338836    -1.3470779035
          6
Energy: -16.87616612848535 Kcal/mole
 H     -0.7512334417     1.3511491553    -0.3380956547
 F     -1.0110800721     2.1566494337     0.0148038073
 H     -2.5283627312     2.0346072073    -0.8341084009
 F     -3.0916503905     1.5840441745    -1.4003141642
 H     -1.8989437281     0.3103851567    -1.5600644236
 F     -1.0763137183    -0.0340989316    -1.3467581181
          6
Energy: -16.87551197970572 Kcal/mole
 H     -0.7398821389     1.3455914793    -0.3409673574
 F     -0.9929625442     2.1580158086     8.015962E-40
 H     -2.5242506712     2.0393631909    -0.8420797294
 F     -3.0918685258     1.5837918805    -1.3998913036
 H     -1.9121070758     0.3019088922    -1.5367546213
 F     -1.0952460501    -0.0557932327    -1.3230345835
          6
Energy: -16.87487210579775 Kcal/mole
 H     -0.7447120012     1.3427360289    -0.3376911057
 F     -0.9927063311     2.1581672836     6.277986E-40
 H     -2.5298868125     2.0421765423    -0.8390829536
 F     -3.0989913328     1.5807443782    -1.3905259723
 H     -1.9148827839     0.2957621666    -1.5363207831
 F     -1.0950988052    -0.0554671631    -1.3230575976
          6
Energy: -16.87622894787188 Kcal/mole
 H     -0.7488753468     1.3516402958    -0.3550883531
 F     -1.0000852748     2.1647695278    -0.0136159177
 H     -2.5231262614     2.0393571612    -0.8526645718
 F     -3.0931118040     1.5812428365    -1.4059608277
 H     -1.9146216282     0.2947229659    -1.5390153946
 F     -1.0951126589    -0.0554120359    -1.3229146547
          6
Energy: -16.875491123644736 Kcal/mole
 H     -0.7497723297     1.3480799477    -0.3471522773
 F     -1.0000376919     2.1649583960    -0.0140369082
 H     -2.5238902377     2.0381967462    -0.8509214875
 F     -3.0930712768     1.5813043938    -1.4060532943
 H     -1.9143220840     0.2941674591    -1.5410404346
 F     -1.0951285491    -0.0553825676    -1.3228072310
          6
Energy: -16.875003987355512 Kcal/mole
 H     -0.7539923581     1.3498817968    -0.3546198731
 F     -0.9998138292     2.1648628121    -0.0136407695
 H     -2.5269404164     2.0477190101    -0.8557481834
 F     -3.0929094719     1.5807992597    -1.4057972493
 H     -1.9174877404     0.2924199059    -1.5317150888
 F     -1.0949606183    -0.0552898639    -1.3233019190
          6
Energy: -16.87634413676716 Kcal/mole
 H     -0.7509352607     1.3509637662    -0.3549855164
 F     -0.9999760011     2.1648054161    -0.0136213730
 H     -2.5232348998     2.0424312362    -0.8551126143
 F     -3.0931060410     1.5810797639    -1.4058309647
 H     -1.9133155269     0.2978669824    -1.5388460920
 F     -1.0951819446    -0.0555788187    -1.3229236358
          6
Energy: -16.876011702959715 Kcal/mole
 H     -0.7473142520     1.3523629029    -0.3556555527
 F     -1.0001680873     2.1647311952    -0.0135858291
 H     -2.5340234420     2.0366407679    -0.8471538252
 F     -3.0984395421     1.5721100195    -1.4008095394
 H     -1.9152173432     0.2969183605    -1.5331014020
 F     -1.0950810576    -0.0555284966    -1.3232283783
          6
Energy: -16.87542074736581 Kcal/mole
 H     -0.7424235470     1.3516367469    -0.3502329939
 F     -1.0004275279     2.1647697161    -0.0138734833
 H     -2.5295781083     2.0358778176    -0.8510794221
 F     -3.0986753567     1.5721504923    -1.4006012956
 H     -1.9155381567     0.2951698661    -1.5347691351
 F     -1.0950640392    -0.0554357430    -1.3231399089
          6
Energy: -16.875763017861118 Kcal/mole
 H     -0.7471645787     1.3520534446    -0.3548087096
 F     -1.0001760271     2.1647476112    -0.0136307522
 H     -2.5335886532     2.0388496956    -0.8494602880
 F     -3.0984626066     1.5719928410    -1.4006871869
 H     -1.9178246084     0.2926485851    -1.5299961956
 F     -1.0949427482    -0.0553019948    -1.3233931023
          6
Energy: -16.875292323616122 Kcal/mole
 H     -0.7448355598     1.3536713770    -0.3569162397
 F     -1.0002995762     2.1646617836    -0.0135189526
 H     -2.5300309743     2.0326753935    -0.8479275222
 F     -3.0986513332     1.5723203735    -1.4007684966
 H     -1.9170358322     0.2909493713    -1.5359017292
 F     -1.0949845910    -0.0552118555    -1.3230798274
          6
Energy: -16.8760976255777 Kcal/mole
 H     -0.7452697038     1.3574867304    -0.3505204223
 F     -1.0004207919     2.1713686949    -0.0137963958
 H     -2.5327613787     2.0370862437    -0.8488185210
 F     -3.0985064916     1.5720863881    -1.4007212312
 H     -1.9162750020     0.2965077588    -1.5296242868
 F     -1.0950249513    -0.0555067151    -1.3234128312
          6
Energy: -16.87523086118 Kcal/mole
 H     -0.7518143405     1.3557763184    -0.3512729880
 F     -1.0000736141     2.1714594283    -0.0137564739
 H     -2.5337004923     2.0392264015    -0.8496649153
 F     -3.0984566738     1.5719728576    -1.4006763319
 H     -1.9124418885     0.3010733911    -1.5368712753
 F     -1.0952282891    -0.0557489113    -1.3230283952
          6
Energy: -16.874715990311188 Kcal/mole
 H     -0.7483264254     1.3558513132    -0.3488606387
 F     -1.0002586399     2.1714554500    -0.0138844434
 H     -2.5273957903     2.0365169334    -0.8490908518
 F     -3.0996083017     1.5809076818    -1.4021568983
 H     -1.9186699447     0.2902060299    -1.5371219519
 F     -1.0993870918    -0.0589614506    -1.3186118207
          6
Energy: -16.87572977881979 Kcal/mole
 H     -0.7458004644     1.3555440357    -0.3461913488
 F     -1.0003926363     2.1714717504    -0.0140260431
 H     -2.5296744299     2.0452895611    -0.8540618488
 F     -3.0994874251     1.5804423142    -1.4018931984
 H     -1.9182894296     0.2924313277    -1.5349693034
 F     -1.0994072773    -0.0590794975    -1.3187260137
          6
Energy: -16.875190173735064 Kcal/mole
 H     -0.7466441281     1.3671067666    -0.3707396660
 F     -0.9907045790     2.1869338419    -0.0402747466
 H     -2.5267737354     2.0501145047    -0.8612531716
 F     -3.0996413002     1.5801863621    -1.4015117153
 H     -1.9210118635     0.2858766533    -1.5351919067
 F     -1.0992628584    -0.0587317872    -1.3187142051
          6
Energy: -16.876252927925123 Kcal/mole
 H     -0.7424128899     1.3662921892    -0.3655209383
 F     -0.9909290364     2.1869770534    -0.0405515880
 H     -2.5180924911     2.0524636170    -0.8701069251
 F     -3.0906052533     1.5817237023    -1.4100347627
 H     -1.9186618305     0.2948239144    -1.5295849787
 F     -1.0993875222    -0.0592064187    -1.3190116397
          6
Energy: -16.87485300120437 Kcal/mole
 H     -0.7421296616     1.3682376911    -0.3701761822
 F     -0.9909440610     2.1868738490    -0.0403046381
 H     -2.5182928707     2.0521714931    -0.8696400971
 F     -3.0905946237     1.5817391988    -1.4100595269
 H     -1.9221000541     0.2901531158    -1.5238957633
 F     -1.0992051324    -0.0589586437    -1.3193134394
          6
Energy: -16.875938986210997 Kcal/mole
 H     -0.7441346344     1.3655970495    -0.3650761927
 F     -0.9908377019     2.1870139289    -0.0405751808
 H     -2.5158394112     2.0530829711    -0.8730497374
 F     -3.0907247740     1.5816908470    -1.4098786533
 H     -1.9192256469     0.2904493748    -1.5346337424
 F     -1.0993576131    -0.0589743595    -1.3187438144
          6
Energy: -16.874429728332245 Kcal/mole
 H     -0.7350612518     1.3723003771    -0.3676301740
 F     -0.9927180291     2.1888532508    -0.0393872921
 H     -2.5148088919     2.0508147797    -0.8721684506
 F     -3.0907794407     1.5818111693    -1.4099254036
 H     -1.9191794687     0.2941780979    -1.5286529176
 F     -1.0993600627    -0.0591721597    -1.3190610834
          6
Energy: -16.875359290266488 Kcal/mole
 H     -0.7430732147     1.3641990332    -0.3532248186
 F     -0.9922930129     2.1892830084    -0.0401514629
 H     -2.5152864607     2.0508208953    -0.8716627527
 F     -3.0907541068     1.5818108449    -1.4099522297
 H     -1.9195947773     0.2906017608    -1.5274358689
 F     -1.1016773296    -0.0625602992    -1.3102341008
          6
Energy: -16.875588084522406 Kcal/mole
 H     -0.7437224834     1.3557708846    -0.3577478377
 F     -0.9920112330     2.1742316623    -0.0270460806
 H     -2.5223481067     2.0469462330    -0.8609138712
 F     -3.0903795028     1.5820163867    -1.4105224330
 H     -1.9213984895     0.2892526528    -1.5227722005
 F     -1.1015816468    -0.0624887321    -1.3104814977
          6
Energy: -16.875201564991983 Kcal/mole
 H     -0.7519570055     1.3508325317    -0.3514992785
 F     -0.9915744106     2.1744936305    -0.0273775522
 H     -2.5223642412     2.0484138978    -0.8621422456
 F     -3.0903786469     1.5819385305    -1.4104572706
 H     -1.9165946466     0.2919914545    -1.5362586819
 F     -1.1018364796    -0.0626340192    -1.3097660710
          6
Energy: -16.87574463641812 Kcal/mole
 H     -0.7546953442     1.3503159839    -0.3521976208
 F     -0.9914291481     2.1745210322    -0.0273405068
 H     -2.5189371767     2.0477174930    -0.8651202324
 F     -3.0905604447     1.5819754732    -1.4102992953
 H     -1.9191672955     0.2894415921    -1.5308992469
 F     -1.1017000065    -0.0624987549    -1.3100503766
          6
Energy: -16.875871075558564 Kcal/mole
 H     -0.7536719766     1.3515845835    -0.3546563592
 F     -0.9914834354     2.1744537359    -0.0272100764
 H     -2.5167406640     2.0475567176    -0.8672951923
 F     -3.0906769646     1.5819840019    -1.4101839187
 H     -1.9182776169     0.2910083584    -1.5316863891
 F     -1.1017472019    -0.0625818682    -1.3100086206
          6
Energy: -16.87678256311881 Kcal/mole
 H     -0.7470122702     1.3542292784    -0.3563784339
 F     -0.9918367174     2.1743134409    -0.0271187243
 H     -2.5188312367     2.0506353771    -0.8677388920
 F     -3.0905660646     1.5818206862    -1.4101603814
 H     -1.9206671980     0.2888458906    -1.5262386950
 F     -1.1016204401    -0.0624671543    -1.3102976081
          6
Energy: -16.876041546530246 Kcal/mole
 H     -0.7467888037     1.3555808865    -0.3480432901
 F     -0.9903670379     2.1797575097    -0.0282128075
 H     -2.5106829034     2.0557313700    -0.8860975763
 F     -3.0830431014     1.5902511672    -1.4307267939
 H     -1.9159766431     0.2949591967    -1.5337997245
 F     -1.1018692632    -0.0627914511    -1.3098965130
          6
Energy: -16.87573909473815 Kcal/mole
 H     -0.7428537201     1.3587178547    -0.3530471818
 F     -0.9905757850     2.1795911008    -0.0279473626
 H     -2.5123734643     2.0593866227    -0.8874624655
 F     -3.0829534210     1.5900572645    -1.4306543897
 H     -1.9161671054     0.2941475256    -1.5344016023
 F     -1.1018591597    -0.0627483938    -1.3098645848
          6
Energy: -16.8763130833118 Kcal/mole
 H     -0.7428319708     1.3578532520    -0.3508383843
 F     -0.9905769387     2.1796369660    -0.0280645342
 H     -2.5154269091     2.0550246856    -0.8805599212
 F     -3.0827914428     1.5902886552    -1.4310205537
 H     -1.9164197861     0.2954372097    -1.5314102754
 F     -1.1018457555    -0.0628168086    -1.3100232677
          6
Energy: -16.875836502199036 Kcal/mole
 H     -0.7426675616     1.3570870651    -0.3487533835
 F     -0.9905856602     2.1796776104    -0.0281751387
 H     -2.5107502464     2.0577970014    -0.8877991736
 F     -3.0830395290     1.5901415903    -1.4306365281
 H     -1.9157123431     0.2947790309    -1.5350446957
 F     -1.1018832837    -0.0627818937    -1.3098304701
          6
Energy: -16.876043753164936 Kcal/mole
 H     -0.7489641048     1.3551533276    -0.3485896016
 F     -0.9902516432     2.1797801907    -0.0281838270
 H     -2.5166234686     2.0567422563    -0.8807809442
 F     -3.0827279681     1.5901975420    -1.4310088290
 H     -1.9146987129     0.2943434002    -1.5393529165
 F     -1.1019370545    -0.0627587845    -1.3096019290
          6
Energy: -16.87642233289938 Kcal/mole
 H     -0.7515707636     1.3555643385    -0.3516631281
 F     -0.9973522348     2.1776888509    -0.0282566431
 H     -2.5161971044     2.0556431739    -0.8802892472
 F     -3.0827505857     1.5902558458    -1.4310349124
 H     -1.9180158203     0.2904742736    -1.5334939919
 F     -1.1017610896    -0.0625535363    -1.3099127314
          6
Energy: -16.87672142179622 Kcal/mole
 H     -0.7510349180     1.3513841607    -0.3510015337
 F     -0.9942678924     2.1723642345    -0.0227966608
 H     -2.5152033247     2.0557512972    -0.8814050622
 F     -3.0828033035     1.5902501101    -1.4309757210
 H     -1.9151291357     0.2940819766    -1.5382331391
 F     -1.1019142215    -0.0627449166    -1.3096613306
          6
Energy: -16.87611458316428 Kcal/mole
 H     -0.7522186165     1.3512161513    -0.3514558865
 F     -0.9942050999     2.1723731470    -0.0227725584
 H     -2.5162524321     2.0508867314    -0.8762503024
 F     -3.0827476507     1.5905081641    -1.4312491690
 H     -1.9167307186     0.2927184395    -1.5346234447
 F     -1.1018292613    -0.0626725841    -1.3098528165
          6
Energy: -16.87635428771773 Kcal/mole
 H     -0.7529615066     1.3501642716    -0.3493652315
 F     -0.9941656913     2.1724289468    -0.0228834628
 H     -2.5147840735     2.0582149348    -0.8760252460
 F     -3.0859440394     1.5952274439    -1.4240287831
 H     -1.9176641770     0.2908639323    -1.5341608234
 F     -1.1017797435    -0.0625742068    -1.3098773575
          6
Energy: -16.87647484185669 Kcal/mole
 H     -0.7508456040     1.3512955470    -0.3506392918
 F     -0.9942779351     2.1723689352    -0.0228158769
 H     -2.5162277767     2.0550115661    -0.8718428016
 F     -3.0858674542     1.5953973752    -1.4242506521
 H     -1.9197274036     0.2939145152    -1.5441590232
 F     -1.1048832393    -0.0619617364    -1.3199491181
          6
Energy: -16.87562614642087 Kcal/mole
 H     -0.7513561566     1.3512004712    -0.3507798198
 F     -0.9942508514     2.1723739788    -0.0228084222
 H     -2.5147637783     2.0538976915    -0.8724292557
 F     -3.0859451160     1.5954564637    -1.4242195421
 H     -1.9224360635     0.2903515101    -1.5398802944
 F     -1.1047395512    -0.0617727272    -1.3201760948
          6
Energy: -16.876481882271264 Kcal/mole
 H     -0.7518618582     1.3502436653    -0.3487502006
 F     -0.9942240251     2.1724247351    -0.0229160888
 H     -2.5134473774     2.0561709226    -0.8756973511
 F     -3.0860149480     1.5953358740    -1.4240461772
 H     -1.9189874897     0.2977561652    -1.5406861767
 F     -1.1049224900    -0.0621655270    -1.3201333446
          6
Energy: -16.8755730678443 Kcal/mole
 H     -0.7446423247     1.3553739485    -0.3561111539
 F     -0.9946070047     2.1721525855    -0.0225256072
 H     -2.5118444864     2.0529963874    -0.8747162093
 F     -3.0860999777     1.5955042758    -1.4240982245
 H     -1.9185454931     0.2983305332    -1.5418031079
 F     -1.1035652613    -0.0611649624    -1.3239517582
          6
Energy: -16.876622977945942 Kcal/mole
 H     -0.7544282527     1.3416399690    -0.3452089749
 F     -0.9967391648     2.1606859548    -0.0115353394
 H     -2.5163411772     2.0522830468    -0.8694681649
 F     -3.0858614386     1.5955421169    -1.4243766211
 H     -1.9153997285     0.3014242938    -1.5483165194
 F     -1.1037321369    -0.0613290793    -1.3236062368
          6
Energy: -16.876397913679227 Kcal/mole
 H     -0.7539685924     1.3414475160    -0.3444013512
 F     -0.9967635487     2.1606961639    -0.0115781820
 H     -2.5097199832     2.0510788517    -0.8699372812
 F     -3.0760665533     1.5984296581    -1.4314079128
 H     -1.9153122094     0.3019110119    -1.5478458349
 F     -1.1037367796    -0.0613548985    -1.3236312055
          6
Energy: -16.876484500368235 Kcal/mole
 H     -0.7548292313     1.3403481624    -0.3423131327
 F     -0.9967178938     2.1607544821    -0.0116889572
 H     -2.5110000968     2.0567600747    -0.8730382469
 F     -3.0772702006     1.6015642405    -1.4325236552
 H     -1.9119959071     0.3059110879    -1.5532371808
 F     -1.1039127017    -0.0615670933    -1.3233452071
          6
Energy: -16.87583624670083 Kcal/mole
 H     -0.7548901634     1.3389050761    -0.3387533542
 F     -0.9967146615     2.1608310345    -0.0118777952
 H     -2.5109869099     2.0585621331    -0.8745228741
 F     -3.0772709001     1.6014686455    -1.4324448991
 H     -1.9117598953     0.3059076604    -1.5540705362
 F     -1.1039252216    -0.0615669115    -1.3233009995
          6
Energy: -16.87631372527585 Kcal/mole
 H     -0.7526236918     1.3417039064    -0.3440481900
 F     -0.9968348926     2.1606825630    -0.0115969164
 H     -2.5114342786     2.0550281612    -0.8711959141
 F     -3.0772471682     1.6016561145    -1.4326213867
 H     -1.9115990242     0.3074030619    -1.5522396147
 F     -1.1039337555    -0.0616462391    -1.3233981257
          6
Energy: -16.875234381275448 Kcal/mole
 H     -0.7476702392     1.3370171738    -0.3482231799
 F     -0.9876591327     2.1563267123    -0.0135200111
 H     -2.5093898130     2.0548298227    -0.8731035608
 F     -3.0773556224     1.6016666359    -1.4325201904
 H     -1.9166262496     0.2968990561    -1.5511214692
 F     -1.1036670728    -0.0610890259    -1.3234574407
          6
Energy: -16.87681431415899 Kcal/mole
 H     -0.7471307324     1.3373056451    -0.3485417343
 F     -0.9876877523     2.1563114096    -0.0135031126
 H     -2.5084050443     2.0562759922    -0.8752822174
 F     -3.0774078621     1.6015899199    -1.4324046177
 H     -1.9127600700     0.3004315030    -1.5560794046
 F     -1.1010481943    -0.0625545352    -1.3319054386
          6
Energy: -16.876767828432605 Kcal/mole
 H     -0.7446939720     1.3380218599    -0.3485328030
 F     -0.9878170168     2.1562734160    -0.0135035863
 H     -2.5091870305     2.0555359419    -0.8738825231
 F     -3.0773663795     1.6016291779    -1.4324788683
 H     -1.9131585831     0.3016952042    -1.5525569568
 F     -1.1010270541    -0.0626215716    -1.3320922964
          6
Energy: -16.876583015050016 Kcal/mole
 H     -0.7443926044     1.3374667549    -0.3469538131
 F     -0.9878330036     2.1563028631    -0.0135873481
 H     -2.5094174003     2.0555630980    -0.8736703609
 F     -3.0773541590     1.6016277373    -1.4324901230
 H     -1.9130761235     0.3001799286    -1.5553406943
 F     -1.1010314284    -0.0625411897    -1.3319446255
          6
Energy: -16.87649557353251 Kcal/mole
 H     -0.7438117678     1.3399202660    -0.3524975489
 F     -0.9878638157     2.1561727100    -0.0132932657
 H     -2.5115266336     2.0554484571    -0.8714424727
 F     -3.0772422690     1.6016338188    -1.4326083073
 H     -1.9133401289     0.3004925331    -1.5538679620
 F     -1.1010174236    -0.0625577727    -1.3320227506
          6
Energy: -16.87636181124975 Kcal/mole
 H     -0.7450033194     1.3387189654    -0.3504531406
 F     -0.9878006066     2.1562364362    -0.0134017169
 H     -2.5059885996     2.0536811583    -0.8756444676
 F     -3.0775360489     1.6017275699    -1.4323854012
 H     -1.9149411333     0.2973486406    -1.5531197393
 F     -1.1009324940    -0.0623909964    -1.3320624420
          6
Energy: -16.876628387288235 Kcal/mole
 H     -0.7439543910     1.3387781144    -0.3498386898
 F     -0.9878562498     2.1562332985    -0.0134343121
 H     -2.5066618761     2.0538560464    -0.8750959989
 F     -3.0775003332     1.6017182925    -1.4324144962
 H     -1.9124990129     0.3011479111    -1.5558631719
 F     -1.1010620428    -0.0625925390    -1.3319169093
          6
Energy: -16.87641226518093 Kcal/mole
 H     -0.7447446848     1.3395979380    -0.3523915963
 F     -0.9878143266     2.1561898087    -0.0132988863
 H     -2.5111087094     2.0587955578    -0.8745905587
 F     -3.0772644389     1.6014562628    -1.4324413086
 H     -1.9138057723     0.3001443571    -1.5527288413
 F     -1.1009927222    -0.0625393027    -1.3320831783
          6
Energy: -16.876646173809775 Kcal/mole
 H     -0.7454532470     1.3377605739    -0.3484446196
 F     -0.9877767390     2.1562872766    -0.0135082643
 H     -2.5107487783     2.0550489648    -0.8719044831
 F     -3.0772835324     1.6016550109    -1.4325837987
 H     -1.9115495456     0.3035726963    -1.5553484527
 F     -1.1011124099    -0.0627211682    -1.3319442139
          6
Energy: -16.876835658021548 Kcal/mole
 H     -0.7456316155     1.3377251501    -0.3484870431
 F     -0.9877672770     2.1562891558    -0.0135060138
 H     -2.5083383128     2.0567079058    -0.8757032189
 F     -3.0774114021     1.6015670079    -1.4323822846
 H     -1.9129757933     0.3015306164    -1.5535000164
 F     -1.1010367507    -0.0626128406    -1.3320422692
          6
Energy: -16.875917871368756 Kcal/mole
 H     -0.7528445127     1.3327551130    -0.3471662621
 F     -0.9946562942     2.1510353390    -0.0112592302
 H     -2.5114180554     2.0536835661    -0.8701292162
 F     -3.0772480288     1.6017274422    -1.4326779725
 H     -1.9143901945     0.2982718261    -1.5536427254
 F     -1.1009617200    -0.0624399693    -1.3320346988
          6
Energy: -16.876608300340195 Kcal/mole
 H     -0.7519634141     1.3342857495    -0.3492147665
 F     -0.9938884172     2.1497668326    -0.0066481366
 H     -2.5093301537     2.0523317186    -0.8711499771
 F     -3.0773587872     1.6017991545    -1.4326238235
 H     -1.9137213366     0.2992767839    -1.5544570079
 F     -1.1009972014    -0.0624932800    -1.3319915030
          6
Energy: -16.87632360352478 Kcal/mole
 H     -0.7475161807     1.3331517597    -0.3432882460
 F     -0.9941243327     2.1498269882    -0.0069625249
 H     -2.5093796749     2.0554392451    -0.8819104673
 F     -3.0713105606     1.6036851089    -1.4485151621
 H     -1.9089013838     0.3052000917    -1.5621548785
 F     -1.1012528887    -0.0628074978    -1.3315831488
          6
Energy: -16.87618166645001 Kcal/mole
 H     -0.7472195279     1.3343207683    -0.3458964193
 F     -0.9941400694     2.1497649750    -0.0068241673
 H     -2.5093809423     2.0539483296    -0.8807238768
 F     -3.0713104934     1.6037641985    -1.4485781079
 H     -1.9085614038     0.3062857468    -1.5616093513
 F     -1.1012709239    -0.0628650893    -1.3316120877
          6
Energy: -16.876595307233288 Kcal/mole
 H     -0.7536459496     1.3309056631    -0.3422604427
 F     -0.9937991626     2.1499461384    -0.0070170475
 H     -2.5100623722     2.0558122348    -0.8815314821
 F     -3.0712743451     1.6036653227    -1.4485352663
 H     -1.9094729035     0.3043248047    -1.5615466298
 F     -1.1012225709    -0.0627610658    -1.3316154150
          6
Energy: -16.87588747148999 Kcal/mole
 H     -0.7545512505     1.3269591269    -0.3364082873
 F     -0.9995119651     2.1455278857    -0.0034992376
 H     -2.5060746585     2.0543592348    -0.8843438656
 F     -3.0714858841     1.6037424010    -1.4483860759
 H     -1.9086300887     0.3036377272    -1.5655664883
 F     -1.1012672803    -0.0627246180    -1.3314021708
          6
Energy: -16.87680045169577 Kcal/mole
 H     -0.7564523338     1.3288585140    -0.3424090481
 F     -0.9994111170     2.1454271276    -0.0031809111
 H     -2.5084203593     2.0549051376    -0.8824374039
 F     -3.0713614501     1.6037134421    -1.4484872093
 H     -1.9095871960     0.3046242108    -1.5606648525
 F     -1.1012165080    -0.0627769486    -1.3316621912
          6
Energy: -16.87656901443802 Kcal/mole
 H     -0.7511100244     1.3300442499    -0.3422055856
 F     -0.9970841744     2.1468531852    -0.0057403113
 H     -2.5067078024     2.0527858136    -0.8824581735
 F     -3.0714522973     1.6038258673    -1.4484861075
 H     -1.9095592566     0.3042792068    -1.5613157362
 F     -1.1012179901    -0.0627586470    -1.3316276633
          6
Energy: -16.87657737308143 Kcal/mole
 H     -0.7563398125     1.3283160011    -0.3417855640
 F     -0.9968067462     2.1469448648    -0.0057625925
 H     -2.5061434586     2.0542470947    -0.8841853486
 F     -3.0714822344     1.6037483498    -1.4483944849
 H     -1.9108854314     0.3017880864    -1.5606099002
 F     -1.1011476396    -0.0626264988    -1.3316651063
          6
Energy: -16.876682962709822 Kcal/mole
 H     -0.7562878964     1.3285387571    -0.3422906145
 F     -0.9968095002     2.1469330481    -0.0057358008
 H     -2.5064674072     2.0554992944    -0.8848625728
 F     -3.0714650497     1.6036819235    -1.4483585597
 H     -1.9094563055     0.3037142597    -1.5625764290
 F     -1.1012234514    -0.0627286778    -1.3315607865
          6
Energy: -16.875979081064315 Kcal/mole
 H     -0.7526165581     1.3278612501    -0.3379683495
 F     -0.9970042562     2.1469689883    -0.0059650869
 H     -2.5065796595     2.0537348025    -0.8833403182
 F     -3.0714590950     1.6037755257    -1.4484393118
 H     -1.9101953313     0.3049784138    -1.5579315754
 F     -1.1011842478    -0.0627957383    -1.3318071853
          6
Energy: -16.876474479652927 Kcal/mole
 H     -0.7517827973     1.3308241557    -0.3445802471
 F     -0.9970484853     2.1468118130    -0.0056143410
 H     -2.5073296521     2.0537690627    -0.8826189067
 F     -3.0714193096     1.6037737082    -1.4484775810
 H     -1.9112064417     0.3010952479    -1.5605759996
 F     -1.1011306107    -0.0625897453    -1.3316669047
          6
Energy: -16.87618278478857 Kcal/mole
 H     -0.7562166569     1.3275844130    -0.3399087327
 F     -0.9968132793     2.1469836738    -0.0058621541
 H     -2.5048716162     2.0529908899    -0.8844597600
 F     -3.0715497027     1.6038149885    -1.4483799280
 H     -1.9110080142     0.3017818265    -1.5601858621
 F     -1.1011411368    -0.0626261667    -1.3316876006
          6
Energy: -16.87663579056141 Kcal/mole
 H     -0.7545219683     1.3307804938    -0.3464400929
 F     -0.9969031786     2.1468141291    -0.0055156805
 H     -2.5080247468     2.0539898588    -0.8821023149
 F     -3.0713824364     1.6037619955    -1.4485049850
 H     -1.9106622858     0.3023801574    -1.5604557444
 F     -1.1011594769    -0.0626579068    -1.3316732839
          6
Energy: -16.876806762408307 Kcal/mole
 H     -0.7545803666     1.3298468586    -0.3442380300
 F     -0.9969000807     2.1468636563    -0.0056324949
 H     -2.5083345463     2.0532819304    -0.8812327137
 F     -3.0713660023     1.6037995495    -1.4485511153
 H     -1.9095670517     0.3039607150    -1.5617964851
 F     -1.1012175766    -0.0627417517    -1.3316021607
          6
Energy: -16.876462719601932 Kcal/mole
 H     -0.7580764256     1.3289528314    -0.3445623518
 F     -0.9967146229     2.1469110824    -0.0056152903
 H     -2.5080118729     2.0541190734    -0.8822178591
 F     -3.0713831194     1.6037551410    -1.4484988556
 H     -1.9106039165     0.3011484145    -1.5626133893
 F     -1.1011625733    -0.0625925657    -1.3315588258
          6
Energy: -16.876540013827253 Kcal/mole
 H     -0.7518274365     1.3311982290    -0.3455114803
 F     -0.9970461173     2.1467919692    -0.0055649413
 H     -2.5088796865     2.0544308981    -0.8816036405
 F     -3.0713370839     1.6037385994    -1.4485314385
 H     -1.9089770190     0.3048456451    -1.5624551569
 F     -1.1012488764    -0.0627886952    -1.3315672197
          6
Energy: -16.876624755928674 Kcal/mole
 H     -0.7534675320     1.3288955910    -0.3411279665
 F     -0.9969591140     2.1469141189    -0.0057974765
 H     -2.5086776917     2.0557017608    -0.8828172498
 F     -3.0713477992     1.6036711831    -1.4484670593
 H     -1.9083309849     0.3059670773    -1.5629252752
 F     -1.1012831471    -0.0628481846    -1.3315422810
          6
Energy: -16.876957756292768 Kcal/mole
 H     -0.7556496706     1.3277038211    -0.3397927131
 F     -0.9968433566     2.1469773395    -0.0058683087
 H     -2.5065353638     2.0544126950    -0.8839251163
 F     -3.0714614448     1.6037395650    -1.4484082896
 H     -1.9142077204     0.2997775081    -1.5541532199
 F     -1.1063325334    -0.0684698711    -1.3247615247
          6
Energy: -16.876973264443336 Kcal/mole
 H     -0.7562334741     1.3277567530    -0.3403432415
 F     -0.9968123872     2.1469745316    -0.0058391044
 H     -2.5077900906     2.0548129931    -0.8829914269
 F     -3.0713948844     1.6037183301    -1.4484578196
 H     -1.9145839824     0.2986441333    -1.5546437000
 F     -1.1063125736    -0.0684097482    -1.3247355058
          6
Energy: -16.876757548152 Kcal/mole
 H     -0.7578685133     1.3267153460    -0.3389597922
 F     -0.9967256521     2.1470297758    -0.0059124932
 H     -2.5084319328     2.0542482761    -0.8819029845
 F     -3.0713608362     1.6037482871    -1.4485155590
 H     -1.9133811190     0.3008795901    -1.5552878506
 F     -1.1063763827    -0.0685283340    -1.3247013351
          6
Energy: -16.876985521755614 Kcal/mole
 H     -0.7547711037     1.3278081318    -0.3394125850
 F     -0.9968899626     2.1469718061    -0.0058884736
 H     -2.5066102871     2.0531107857    -0.8828134523
 F     -3.0714574703     1.6038086283    -1.4484672608
 H     -1.9139404511     0.2990028087    -1.5563257595
 F     -1.1063467114    -0.0684287751    -1.3246462765
          6
Energy: -16.877056904217056 Kcal/mole
 H     -0.7556151192     1.3280221249    -0.3405476452
 F     -0.9968451895     2.1469604542    -0.0058282613
 H     -2.5065122644     2.0545438906    -0.8840530099
 F     -3.0714626701     1.6037326054    -1.4484015051
 H     -1.9134362875     0.2998394415    -1.5567537439
 F     -1.1063734561    -0.0684731566    -1.3246235729
          6
Energy: -16.876988149573037 Kcal/mole
 H     -0.7554079785     1.3277138777    -0.3396426848
 F     -0.9968561778     2.1469768060    -0.0058762673
 H     -2.5071020530     2.0550599098    -0.8838753996
 F     -3.0714313832     1.6037052318    -1.4484109269
 H     -1.9146411383     0.2986408232    -1.5544479506
 F     -1.1063095416    -0.0684095726    -1.3247458899
          6
Energy: -16.876924954319577 Kcal/mole
 H     -0.7555751510     1.3275189035    -0.3392847281
 F     -0.9968473097     2.1469871489    -0.0058952561
 H     -2.5052954618     2.0532200419    -0.8842166385
 F     -3.0715272187     1.6038028325    -1.4483928250
 H     -1.9140794511     0.2990472985    -1.5557699210
 F     -1.1063393378    -0.0684311352    -1.3246757624
          6
Energy: -16.87683253773986 Kcal/mole
 H     -0.7558853008     1.3267902768    -0.3377133340
 F     -0.9968308570     2.1470258009    -0.0059786149
 H     -2.5053022010     2.0562286685    -0.8866203572
 F     -3.0715268612     1.6036432318    -1.4482653133
 H     -1.9142938372     0.2988781664    -1.5552888316
 F     -1.1063279651    -0.0684221631    -1.3247012831
          6
Energy: -16.876863414860054 Kcal/mole
 H     -0.7539559289     1.3287687689    -0.3411728256
 F     -0.9969332057     2.1469208465    -0.0057950969
 H     -2.5062676739     2.0553536042    -0.8849460860
 F     -3.0714756451     1.6036896520    -1.4483541295
 H     -1.9147448588     0.2987818590    -1.5538567152
 F     -1.1063040394    -0.0684170543    -1.3247772536
          6
Energy: -16.877021319420578 Kcal/mole
 H     -0.7555155830     1.3276058794    -0.3394553416
 F     -0.9968504696     2.1469825351    -0.0058862054
 H     -2.5075026308     2.0564261320    -0.8845696234
 F     -3.0714101335     1.6036327569    -1.4483741000
 H     -1.9135383169     0.3004492617    -1.5554265690
 F     -1.1063680437    -0.0685055061    -1.3246939765
          6
Energy: -16.876952953491923 Kcal/mole
 H     -0.7556672986     1.3270809329    -0.3382729542
 F     -0.9968424215     2.1470103823    -0.0059489283
 H     -2.5075902362     2.0550797566    -0.8834036927
 F     -3.0714054862     1.6037041790    -1.4484359499
 H     -1.9141083949     0.2997125977    -1.5546067237
 F     -1.1063378024    -0.0684664278    -1.3247374674
          6
Energy: -16.8770151190987 Kcal/mole
 H     -0.7568577177     1.3272006388    -0.3394278329
 F     -0.9967792725     2.1470040322    -0.0058876647
 H     -2.5080283701     2.0554641534    -0.8832739098
 F     -3.0713822442     1.6036837876    -1.4484428346
 H     -1.9125893752     0.3009562450    -1.5579187356
 F     -1.1064183829    -0.0685324004    -1.3245617728
          6
Energy: -16.87709724268973 Kcal/mole
 H     -0.7547946542     1.3280822294    -0.3401020187
 F     -0.9968887133     2.1469572658    -0.0058519007
 H     -2.5077894774     2.0530162967    -0.8815636469
 F     -3.0713949169     1.6038136407    -1.4485335601
 H     -1.9130194248     0.3027926852    -1.5614428180
 F     -1.1062023375    -0.0671621096    -1.3310765066
          6
Energy: -16.877101497073966 Kcal/mole
 H     -0.7537602134     1.3292354972    -0.3421676571
 F     -0.9969435879     2.1468960876    -0.0057423234
 H     -2.5084170586     2.0548138438    -0.8823679295
 F     -3.0713616252     1.6037182850    -1.4484908947
 H     -1.9128931149     0.3033183149    -1.5610400268
 F     -1.1062090379    -0.0671899931    -1.3310978737
          6
Energy: -16.87717423585599 Kcal/mole
 H     -0.7539651187     1.3287688063    -0.3411795746
 F     -0.9969327182     2.1469208445    -0.0057947389
 H     -2.5069191975     2.0536190872    -0.8829090671
 F     -3.0714410833     1.6037816641    -1.4484621886
 H     -1.9136961411     0.3011636051    -1.5616817035
 F     -1.1061664393    -0.0670756907    -1.3310638343
          6
Energy: -16.877179709161112 Kcal/mole
 H     -0.7542512167     1.3291500080    -0.3423143778
 F     -0.9969175414     2.1469006226    -0.0057345402
 H     -2.5079702208     2.0542525165    -0.8823654630
 F     -3.0713853289     1.6037480621    -1.4484910256
 H     -1.9135819545     0.3020914669    -1.5605952843
 F     -1.1061724966    -0.0671249116    -1.3311214663
          6
Energy: -16.877212221047103 Kcal/mole
 H     -0.7545618074     1.3286482195    -0.3413170662
 F     -0.9969010652     2.1469272413    -0.0057874452
 H     -2.5072604164     2.0541251889    -0.8829713710
 F     -3.0714229824     1.6037548166    -1.4484588836
 H     -1.9135999361     0.3018001405    -1.5610001790
 F     -1.1061715427    -0.0671094574    -1.3310999876
