          20
Energy: -78.81522559082518 Kcal/mole
 H      0.2076262571     0.8369047469    -5.0101921623
 F      0.9272032165     0.5775942781    -4.5043699798
 H      1.4813507052     1.3555214701    -1.7696394282
 F      0.6986894204     1.2691403808    -1.2996728116
 H      3.5529034184     2.1507160590    -2.0781862651
 F      2.9510595730     1.6207942807    -2.5229962185
 H      3.9925178021     2.1706761550    -5.5301011485
 F      4.3836068485     2.9937792934    -5.4279268790
 H      5.5455194088     3.3614101000    -4.3070274550
 F      6.0911319796     3.5219546509    -3.5877073803
 H     -1.8339576160     1.4929433763    -5.1658247229
 F     -1.1477173844     1.3740672464    -5.7623411186
 H      2.4326163223     0.6273484940    -5.2140675768
 F      3.2260102323     0.7195730808    -5.6645226014
 H     -2.4503758131     1.0904930050    -3.1934523068
 F     -2.8312455803     1.5804903578    -3.8685299428
 H     -0.6959063108     0.5438608303    -1.8542669857
 F     -1.4837316355     0.2075840236    -2.1815866568
 H      5.2845571184     3.3437031279    -2.1566726833
 F      4.7021977086     3.1481021888    -1.4758740416
