          20
Energy: -79.02687576650443 Kcal/mole
 H      2.5468641303     4.9862915356    -0.8652358474
 F      3.1279968451     5.6956378341    -0.8639722858
 H      0.6870016032    -0.4080452772    -5.2722332702
 F     -0.1930095641    -0.2306112884    -5.4592801229
 H      2.8340507018     0.1657135481    -4.7021120039
 F      2.2477729116    -0.5381605212    -4.7436890074
 H      6.1604258947     4.0658582336    -0.8063715894
 F      6.3480853127     3.3703943588    -1.3738246198
 H      4.9450889003     2.9952153687    -2.1268033555
 F      4.1057540039     2.8790594348    -2.4773939013
 H      1.4886782529     3.1010244097    -1.5677564575
 F      1.5476663881     3.6583821659    -0.8419729281
 H      4.6335138972     5.5177989901    -0.2091505646
 F      5.4757523774     5.2932961036     0.0756683190
 H      0.3854044289     1.9058358900    -3.1198424281
 F      1.2461026687     2.1306184603    -2.8972209195
 H     -0.8675136187     0.7799688609    -4.3392760376
 F     -1.0484837708     1.3746713697    -3.6651338196
 H      3.9121672875     1.9739671864    -3.8680920520
 F      3.8656829995     1.4567959668    -4.6239109063
