          20
Energy: -79.03512879996894 Kcal/mole
 H      2.8541493699     5.9067780811    -1.3777427769
 F      2.6692461884     6.0768545657    -0.4958279267
 H      1.3247886558     0.9193961263    -6.4165438468
 F      0.9000289189     1.3974945025    -7.0737273132
 H      1.9178839813     0.5036372985    -4.2465023008
 F      2.1304300602     0.2921930283    -5.1131074502
 H      3.5947069866     3.3712405758     1.3048894177
 F      3.3317229804     2.5353189575     1.0347719238
 H      2.8897536592     2.6544683871    -0.5289199119
 F      2.6649157068     2.8358566380    -1.3992274424
 H      2.8196141912     4.8548364621    -3.3793240651
 F      3.1977304762     5.5774851304    -2.9601630254
 H      3.5206104894     5.4683877234     0.7997205448
 F      3.9485798371     4.9855931601     1.4513651159
 H      1.8086995046     3.7882989430    -5.0892681251
 F      2.0860580993     3.6161843142    -4.2323330258
 H      1.1073926152     3.0262016543    -6.9109544203
 F      1.2919067122     3.8818828422    -6.6377269460
 H      1.9070599112     1.6331808445    -2.2742049517
 F      1.5121630533     0.9223539127    -2.6980805758
