          20
Energy: -79.04076324278596 Kcal/mole
 H      3.0257127311     6.2070234924    -1.6181460764
 F      2.7750302817     6.4905432146    -0.7828833173
 H      1.1842397900     0.8927933533    -6.0106634452
 F      0.6714544577     1.3342127422    -6.6296053861
 H      2.0256200574     0.5750190902    -3.9205966256
 F      2.1632077659     0.3336870365    -4.7945059242
 H      3.8314052396     3.9749611867     1.3171600089
 F      3.6511012329     3.0909842905     1.1529518726
 H      3.1400118832     3.0074571036    -0.3942404384
 F      2.8661817625     3.0894455660    -1.2655520687
 H      3.0898725772     4.9054313852    -3.4465669995
 F      3.4925994369     5.6508945437    -3.0958751748
 H      3.5928035159     6.0118429320     0.5710529468
 F      4.0286898756     5.6140558282     1.2729485953
 H      1.8989412705     3.7805215057    -4.9868396431
 F      2.2878172199     3.6330722044    -4.1695739583
 H      0.9257306659     2.9593136566    -6.6220953095
 F      1.1640095245     3.8254604241    -6.4379704532
 H      2.1215073770     1.7937387372    -2.0026664054
 F      1.7314127935     1.0445563465    -2.3596551468
