          20
Energy: -79.05789453014046 Kcal/mole
 H      2.9678408536     6.2744571117    -1.5742888230
 F      2.8051928962     6.5291383038    -0.7085104839
 H      1.1061026227     0.9417124415    -6.0973252694
 F      0.6179536837     1.3766959669    -6.7402785694
 H      1.8776980338     0.6527337006    -3.9726580520
 F      2.0416565084     0.4043571769    -4.8400194075
 H      3.9153796351     3.9239449575     1.2080566325
 F      3.6696493797     3.0588052683     1.0290623315
 H      3.0612308157     3.0473547748    -0.4834609592
 F      2.7408856412     3.1618498617    -1.3350235489
 H      2.8775374137     5.0336375301    -3.4682751531
 F      3.2902165367     5.7735929284    -3.1174889647
 H      3.7294932885     5.9870750691     0.5551723716
 F      4.2096932005     5.5496341035     1.2024300066
 H      1.7466713078     3.8800792812    -5.0460444081
 F      2.0757357260     3.7624244297    -4.1982455259
 H      0.8904849616     3.0061852407    -6.7370493178
 F      1.1259835666     3.8732197736    -6.5535267693
 H      1.9546232126     1.8848511287    -2.0719101236
 F      1.5511343298     1.1415680193    -2.4263335156
