          20
Energy: -2.954864841169517 Kcal/mole
 H     -3.0744169832    -0.8844461736     2.6322001031
 F     -2.1574169832    -0.8844461736     2.6322001031
 H      4.2731506160     4.4371135960    -1.4987086268
 F      3.4967857399     4.4371135960    -1.0107059843
 H     -3.6937429903     3.8130614769    -3.3003294734
 F     -4.0627938735     2.9736030529    -3.3003294734
 H      4.8488445029     0.3134084540    -3.5527648541
 F      5.6852554527    -0.0624980810    -3.5527648541
 H     -4.0291484012     4.2656266029     2.8468040706
 F     -3.3463136541     4.2656266029     3.4588708220
 H      5.3526654717    -4.5715884185     1.8555259521
 F      4.5538807297    -4.5715884185     2.3058946188
 H      2.1166878930    -1.1930426586    -5.5654505634
 F      2.7918498323    -1.1930426586    -4.9449303334
 H      0.9561845306    -4.0376305692    -0.0465341889
 F      1.8731845306    -4.0376305692    -0.0465341889
 H      1.4183470683    -0.0269587805     1.9252416314
 F      2.3316771541    -0.0269587805     2.0071998795
 H     -0.8869302717    -0.8207832353    -3.3582603040
 F     -0.2653482027    -0.8207832353    -4.0324447976
