          20
Energy: -79.05263002173835 Kcal/mole
 H      2.9728452504     6.2630803504    -1.5709841050
 F      2.8179812159     6.5238000368    -0.7055758915
 H      1.1687187226     0.9366909875    -6.1215417493
 F      0.6757753765     1.3685506548    -6.7629410674
 H      1.9458251974     0.6336800202    -3.9968726226
 F      2.1045543278     0.4000706665    -4.8692949590
 H      3.9098926461     3.9193246068     1.2260091231
 F      3.6588519745     3.0540615856     1.0551656702
 H      3.0470398447     3.0362244923    -0.4550649197
 F      2.7268371222     3.1471057451    -1.3071591423
 H      2.8619476420     5.0153498488    -3.4612531509
 F      3.2808713021     5.7531112614    -3.1132588046
 H      3.7381132197     5.9778980286     0.5580573148
 F      4.2159275025     5.5400905430     1.2068308630
 H      1.7199490871     3.8723566259    -5.0313271800
 F      2.0550487629     3.7469126933    -4.1870162023
 H      0.8930050076     3.0073003004    -6.7340235949
 F      1.0990179844     3.8785301773    -6.5355137587
 H      1.9996740526     1.8441228640    -2.0679403313
 F      1.6306958732     1.0890372086    -2.4348050968
