          20
Energy: -79.04821442436925 Kcal/mole
 H      3.0231475563     6.2475009195    -1.5923569394
 F      2.8507691232     6.5124154596    -0.7315462969
 H      1.0424005486     0.8892575107    -6.0537465922
 F      0.5048265909     1.3323725463    -6.6500286608
 H      1.9449219434     0.5867141690    -4.0038622298
 F      2.0710041234     0.3394790574    -4.8778571288
 H      3.9408591010     3.9370205211     1.2072192238
 F      3.7026252585     3.0703318343     1.0256032649
 H      3.1067302199     3.0307895424    -0.4895531813
 F      2.7918524998     3.1281143129    -1.3452803051
 H      2.9607693059     4.9855920247    -3.4814510499
 F      3.3654089992     5.7286834333    -3.1279388477
 H      3.7585777087     5.9927650682     0.5566028922
 F      4.2288545506     5.5621132295     1.2155927903
 H      1.7871221330     3.8287229862    -5.0399097521
 F      2.1698501282     3.7088257583    -4.2152686566
 H      0.7997951362     2.9586822709    -6.6695023116
 F      1.0590725324     3.8228318574    -6.5054604755
 H      2.0456951084     1.8319176432    -2.0908348017
 F      1.6600207873     1.0794871105    -2.4457891813
