          20
Energy: -79.01584780953009 Kcal/mole
 H      2.7546394706     5.2408127208    -1.6832087600
 F      2.3600581337     5.5267099000    -0.9063835728
 H      1.8090441051     0.2738672637    -6.9227885040
 F      2.5348895855     0.3143365897    -7.4817156657
 H      0.8519895116     0.2863182807    -4.8765167906
 F      0.6321682157     0.3640955458    -5.7633754574
 H      2.5431402865     2.6422425239     0.9846150243
 F      2.2853998706     1.8216586078     0.6666513240
 H      1.9767891805     1.9846434864    -0.9245547999
 F      1.8454507900     2.1818162995    -1.8104227974
 H      3.2543953017     3.9440227900    -3.5364069278
 F      3.5372345723     4.6466369326    -3.0194694909
 H      2.7539666940     4.7706804164     0.5150837762
 F      2.9564900197     4.2247456942     1.2234823798
 H      3.3280475645     2.5989351996    -5.3414016604
 F      2.8377727452     2.7095225994    -4.5744009899
 H      3.5864523316     1.5320220539    -7.1103886114
 F      4.0590075373     2.2264887111    -6.7425616961
 H      1.5220622939     0.8946901465    -2.8067679770
 F      1.3291264238     0.1489895987    -3.3043576102
