          20
Energy: -79.05295757580447 Kcal/mole
 H      2.9833957075     6.2757742990    -1.5887550616
 F      2.8288361414     6.5393020710    -0.7241433257
 H      1.1296156351     0.9660412346    -6.1136249342
 F      0.6288625051     1.3939701318    -6.7515999822
 H      1.9154767121     0.6754284789    -3.9937845358
 F      2.0870463672     0.4462826369    -4.8649590514
 H      3.8678961953     3.9319767941     1.2327741884
 F      3.5975661892     3.0715988604     1.0667606373
 H      3.0252453679     3.0489401405    -0.4618947636
 F      2.7288643382     3.1572853376    -1.3228875647
 H      2.8483368599     5.0291836689    -3.4702101592
 F      3.2839724692     5.7605918257    -3.1293982989
 H      3.7432652956     5.9902497261     0.5456253713
 F      4.2132930381     5.5493430116     1.1979781826
 H      1.6973429229     3.8937154222    -5.0348065344
 F      2.0106838910     3.7745302871    -4.1812836341
 H      0.8867650220     3.0216924594    -6.7431146212
 F      1.1140696927     3.8898644174    -6.5547027376
 H      1.9648568103     1.8742749553    -2.0721814064
 F      1.5772461612     1.1275334609    -2.4369061316
