          4
Energy: -6.327650726125853 Kcal/mole
 H      2.0229199756    -6.3573820815    -3.8726879521
 F      1.4557825673    -6.9778073097    -4.2391803754
 H      1.1770998063    -6.7725787869    -5.8992171144
 F      1.1451924899    -6.5088057829    -6.7768814726
          4
Energy: -6.326759086741674 Kcal/mole
 H      2.0278925077    -6.3755534282    -3.8781245540
 F      1.4454343737    -6.9812682515    -4.2451954940
 H      1.1777719963    -6.7853481469    -5.9073268621
 F      1.1405482331    -6.5296854052    -6.7871790962
          4
Energy: -6.327519147077169 Kcal/mole
 H      1.6141062889    -6.2409007237    -3.7921561524
 F      1.4509564273    -7.0196888212    -4.2479633724
 H      1.2102504936    -6.8245960980    -5.9122108842
 F      1.1082881939    -6.5317434656    -6.7751883029
          4
Energy: -6.327118711223193 Kcal/mole
 H      1.1358770075    -6.2836766027    -3.7520960868
 F      1.4705964445    -6.9824134176    -4.2426251501
 H      1.2882020418    -6.7945157744    -5.9183529035
 F      1.1006010542    -6.5311892594    -6.7764636282
          4
Energy: -6.327608807246008 Kcal/mole
 H      1.9792334733    -6.3353691605    -3.8575480395
 F      1.4320724676    -6.9668052810    -4.2354266703
 H      1.1484621039    -6.7872748425    -5.8964614566
 F      1.1035759889    -6.5410080255    -6.7786331471
          4
Energy: -6.327320481752395 Kcal/mole
 H      2.0179554198    -6.3537077448    -3.8875099978
 F      1.4522528110    -6.9822941037    -4.2421206966
 H      1.1614153254    -6.7872031591    -5.8989548762
 F      1.1205981650    -6.5271640276    -6.7773640118
          4
Energy: -6.327197339081295 Kcal/mole
 H      2.1796318783    -6.5286724678    -3.9212387928
 F      1.4436762484    -6.9730126294    -4.2403314620
 H      1.1190625570    -6.7574515079    -5.8864533845
 F      1.0920550594    -6.5318690643    -6.7748632878
          4
Energy: -6.327769537211168 Kcal/mole
 H      2.2518519966    -6.6428804331    -3.9615865503
 F      1.4398451381    -6.9669541608    -4.2381911067
 H      1.1056469476    -6.7442798293    -5.8840409365
 F      1.0861639524    -6.5444083310    -6.7787815676
          4
Energy: -6.327155739323985 Kcal/mole
 H      2.2603135780    -7.2332155800    -4.0662925766
 F      1.4019611302    -6.9583377550    -4.2352962943
 H      1.0765024381    -6.6570241108    -5.8690275110
 F      1.0877100013    -6.5490370452    -6.7795779952
          4
Energy: -6.326097471485184 Kcal/mole
 H      2.3330206793    -7.0828061377    -4.0752643328
 F      1.4374730689    -6.9798572108    -4.2434457706
 H      1.0926847556    -6.6854349677    -5.8771304564
 F      1.0959743337    -6.5316201329    -6.7811322126
          4
Energy: -6.327327640707779 Kcal/mole
 H      2.3341132319    -6.9909870003    -4.0389755741
 F      1.4408635198    -6.9704567571    -4.2453065242
 H      1.0832961593    -6.6890927533    -5.8799852526
 F      1.0700904624    -6.5393958373    -6.7845876199
          4
Energy: -6.327321328123219 Kcal/mole
 H      2.3113957523    -7.2068293978    -4.0885861172
 F      1.4420686296    -6.9590068167    -4.2426747995
 H      1.0617011873    -6.6675416754    -5.8681695171
 F      1.0326879291    -6.5635470214    -6.7787914709
          4
Energy: -6.327683817938691 Kcal/mole
 H      2.2756306712    -7.3086473183    -4.0903695838
 F      1.4439658845    -6.9536056113    -4.2425801907
 H      1.0705397820    -6.6575874095    -5.8674171175
 F      1.0322190620    -6.5640750722    -6.7788313840
          4
Energy: -6.327512860761374 Kcal/mole
 H      2.3301771359    -7.1648020297    -4.0767004009
 F      1.4497765593    -6.9671077188    -4.2401041465
 H      1.0686227727    -6.6817017803    -5.8687609826
 F      1.0384863295    -6.5532082971    -6.7762135817
          4
Energy: -6.327414418771866 Kcal/mole
 H      2.3501052404    -7.0102944168    -4.0753478879
 F      1.4487194194    -6.9753039907    -4.2401758942
 H      1.0586701982    -6.6794098101    -5.8628182105
 F      1.0347275890    -6.5175930019    -6.7651103317
          4
Energy: -6.327678163476776 Kcal/mole
 H      2.3092250200    -7.2463783647    -4.0955735618
 F      1.4433849535    -6.9838408330    -4.2448519048
 H      1.0596026371    -6.6486884080    -5.8654699149
 F      1.0344219566    -6.5138875546    -6.7721582094
          4
Energy: -6.327532592934574 Kcal/mole
 H      2.3529267883    -7.0264481075    -4.0813583895
 F      1.4532340947    -6.9812718706    -4.2528260677
 H      1.0444133001    -6.6743001858    -5.8733657271
 F      1.0090427487    -6.5124147217    -6.7752698355
          4
Energy: -6.327245302403242 Kcal/mole
 H      2.3162016947    -6.7950836326    -4.0112928888
 F      1.4551822760    -6.9935452214    -4.2565428806
 H      1.0589004674    -6.6857992127    -5.8797051869
 F      1.0227007739    -6.4612713063    -6.7680552313
          4
Energy: -6.326644378434935 Kcal/mole
 H      2.3358174095    -6.8394699964    -4.0396619805
 F      1.4550321284    -6.9786339506    -4.2535303567
 H      1.0582209806    -6.6765907013    -5.8672673626
 F      1.0203287174    -6.4622216045    -6.7580530084
          4
Energy: -6.327902389223027 Kcal/mole
 H      2.2657102949    -7.3440333565    -4.1374097848
 F      1.4223963480    -7.0032862490    -4.2540373785
 H      1.0351992052    -6.6024485684    -5.8569465821
 F      1.0018278406    -6.4448938380    -6.7596934231
          4
Energy: -6.3262586009727215 Kcal/mole
 H      2.2135476217    -7.4746108055    -4.1727095235
 F      1.4422447899    -6.9840818664    -4.2459372616
 H      1.0621929217    -6.5579101439    -5.8462393044
 F      1.0175076489    -6.4299817707    -6.7531718034
          4
Energy: -6.326617325258098 Kcal/mole
 H      2.2855210402    -7.2950710924    -4.1335546677
 F      1.4241256522    -7.0010959831    -4.2452042112
 H      1.0288653370    -6.6204798207    -5.8451379703
 F      0.9848284371    -6.4728350352    -6.7491018903
          4
Energy: -6.3273545589726155 Kcal/mole
 H      2.2572752383    -7.3232501498    -4.0997057716
 F      1.4111642095    -6.9954602833    -4.2321403982
 H      1.0194628799    -6.6013309021    -5.8356041419
 F      0.9845051248    -6.4418785879    -6.7379576840
          4
Energy: -6.327644507609932 Kcal/mole
 H      2.1933045433    -7.4614205788    -4.1284443649
 F      1.4145577070    -6.9881306613    -4.2306158823
 H      1.0279221765    -6.5688464188    -5.8281760523
 F      0.9817524156    -6.4330134882    -6.7338839347
          4
Energy: -6.327527161660782 Kcal/mole
 H      2.2856003046    -7.1896330213    -4.0735199014
 F      1.4005945227    -7.0092290980    -4.2319755431
 H      1.0373132269    -6.6388503015    -5.8492638715
 F      1.0222013947    -6.4665436545    -6.7498031832
          4
Energy: -6.327557778737457 Kcal/mole
 H      2.2948798301    -7.0131088354    -4.0262449921
 F      1.4002768083    -7.0175357630    -4.2276273041
 H      1.0246176548    -6.6903436812    -5.8488584731
 F      1.0053900683    -6.5071901658    -6.7471758389
          4
Energy: -6.327858682553483 Kcal/mole
 H      2.2067602256    -7.4527842138    -4.0991461399
 F      1.4514102878    -6.9462116660    -4.2162773706
 H      1.0644149402    -6.5968765516    -5.8305962948
 F      1.0111065766    -6.5092706741    -6.7418440265
          4
Energy: -6.327166987156886 Kcal/mole
 H      2.2338737267    -7.4067328376    -4.0921657212
 F      1.4500307835    -6.9486993383    -4.2213344247
 H      1.0643823440    -6.6072054820    -5.8316496804
 F      1.0111083058    -6.5087227482    -6.7417881468
          4
Energy: -6.327108663367596 Kcal/mole
 H      2.3230370890    -7.1679795534    -4.0850064528
 F      1.4407795519    -6.9546293957    -4.2153611554
 H      1.0421383209    -6.6438580986    -5.8353851889
 F      1.0122882998    -6.5067784116    -6.7415899867
          4
Energy: -6.3279032349910835 Kcal/mole
 H      2.3395975154    -7.0059950505    -4.0453989423
 F      1.4399010596    -6.9632222993    -4.2174622423
 H      1.0408999709    -6.6655645325    -5.8389097525
 F      1.0123539914    -6.5056269354    -6.7414030168
          4
Energy: -6.327180367904418 Kcal/mole
 H      2.3275951276    -7.1183881354    -4.0549770581
 F      1.4389858236    -6.9606466737    -4.2173966875
 H      1.0533607467    -6.6359015414    -5.8310648037
 F      1.0167871541    -6.4828075388    -6.7344548627
          4
Energy: -6.326591499281221 Kcal/mole
 H      2.3506881756    -6.9466566959    -4.0417827522
 F      1.4531391947    -6.9754321679    -4.2274351134
 H      1.0615470895    -6.6697359348    -5.8441220326
 F      1.0208801174    -6.4891624151    -6.7422469690
          4
Energy: -6.327934324340106 Kcal/mole
 H      2.3505066216    -7.0603452576    -4.0609861480
 F      1.4531488258    -6.9694012524    -4.2264164176
 H      1.0512541348    -6.6521604740    -5.8437894624
 F      1.0172184107    -6.4908379181    -6.7458457813
          4
Energy: -6.327671176711135 Kcal/mole
 H      2.3439857711    -7.1736142942    -4.0832916927
 F      1.4642367474    -6.9629545422    -4.2334686692
 H      1.0589921551    -6.6213045920    -5.8457135368
 F      1.0143440832    -6.4674409144    -6.7486097205
          4
Energy: -6.327601623270368 Kcal/mole
 H      2.3004364092    -7.3149476206    -4.1047232140
 F      1.4665469404    -6.9554571358    -4.2323317765
 H      1.0779635619    -6.5979280680    -5.8399595558
 F      1.0380289900    -6.4706738394    -6.7472084694
          4
Energy: -6.3272929560564535 Kcal/mole
 H      2.2629716515    -7.3990659643    -4.1358608679
 F      1.4685343592    -6.9509948521    -4.2306799959
 H      1.0801973576    -6.5834897663    -5.8381584708
 F      1.0379104923    -6.4714397580    -6.7473040128
          4
Energy: -6.327762096346021 Kcal/mole
 H      2.3033145935    -7.3074383255    -4.1026611153
 F      1.4663942594    -6.9558554866    -4.2324411661
 H      1.0774839786    -6.6073934861    -5.8491318291
 F      1.0374329934    -6.4843658759    -6.7569584236
          4
Energy: -6.327799467343027 Kcal/mole
 H      2.3073881249    -7.2979570303    -4.1036811269
 F      1.4661781679    -6.9563584474    -4.2323870568
 H      1.0580168768    -6.6201158314    -5.8448175765
 F      1.0101298772    -6.5007651933    -6.7527554931
          4
Energy: -6.326637420317013 Kcal/mole
 H      2.3303366439    -7.1417936797    -4.0728027330
 F      1.4453263564    -6.9656644593    -4.2359722424
 H      1.0472552301    -6.6438762924    -5.8490705506
 F      1.0172838213    -6.4965587800    -6.7536634233
          4
Energy: -6.327533414730169 Kcal/mole
 H      2.2866496456    -7.2833773353    -4.1136096757
 F      1.4323471729    -6.9741397996    -4.2378209134
 H      1.0376969016    -6.6420067056    -5.8560988197
 F      0.9999319897    -6.5207091736    -6.7642561409
          4
Energy: -6.327702379173388 Kcal/mole
 H      2.3366544030    -7.2240948198    -4.1232006551
 F      1.4700272520    -6.9500135106    -4.2445506330
 H      1.0548395135    -6.6296319892    -5.8553709548
 F      1.0117839335    -6.5015285095    -6.7623575674
          4
Energy: -6.327749937998135 Kcal/mole
 H      2.2306224539    -7.4491526961    -4.1448722815
 F      1.4756520019    -6.9380747103    -4.2434010033
 H      1.0738404005    -6.5917258780    -5.8519694957
 F      1.0107759804    -6.5035393411    -6.7625380069
          4
Energy: -6.327826073198651 Kcal/mole
 H      2.2070707203    -7.4798685677    -4.1325517864
 F      1.4769013669    -6.9364453043    -4.2440545771
 H      1.1036079549    -6.5628140322    -5.8563770363
 F      1.0457524389    -6.4700077108    -6.7668322664
          4
Energy: -6.32773330491267 Kcal/mole
 H      2.3234315226    -7.2579662725    -4.1115921302
 F      1.4707286953    -6.9482167083    -4.2451664384
 H      1.0857474263    -6.6007682021    -5.8601366136
 F      1.0466998987    -6.4679943298    -6.7666328295
          4
Energy: -6.327083173305368 Kcal/mole
 H      2.2514487852    -7.4166973710    -4.1545718408
 F      1.4624041770    -6.9590251136    -4.2485596650
 H      1.0852251630    -6.5811085172    -5.8574633800
 F      1.0467276035    -6.4690372306    -6.7667746384
          4
Energy: -6.32751028721043 Kcal/mole
 H      2.3217342321    -7.2668569970    -4.1185921209
 F      1.4651921586    -6.9680465016    -4.2525210727
 H      1.0799178347    -6.6091225895    -5.8613705096
 F      1.0519576155    -6.4641687948    -6.7664095272
          4
Energy: -6.32717215651769 Kcal/mole
 H      2.1621826695    -7.4999318058    -4.1201692431
 F      1.4438190974    -6.9438883897    -4.2453031623
 H      1.0925507372    -6.5709080063    -5.8559659635
 F      1.0466566157    -6.4760241236    -6.7668884511
          4
Energy: -6.327444617380252 Kcal/mole
 H      2.3211821737    -7.0693075290    -4.0649941718
 F      1.4302287470    -6.9362909361    -4.2364513896
 H      1.0701733160    -6.6247368028    -5.8595449994
 F      1.0565722304    -6.4695349563    -6.7632132999
          4
Energy: -6.327850609041889 Kcal/mole
 H      2.3007591918    -7.1874776829    -4.0850193047
 F      1.4343219231    -6.9275844234    -4.2354551813
 H      1.0597225398    -6.6036686126    -5.8569114854
 F      1.0398984534    -6.4750070554    -6.7646241103
          4
Energy: -6.327004920158629 Kcal/mole
 H      2.1549164701    -7.4791339616    -4.1273354806
 F      1.4420585424    -6.9121127317    -4.2332104059
 H      1.0783150885    -6.5571360315    -5.8521913124
 F      1.0389121616    -6.4774755013    -6.7648745045
          4
Energy: -6.327487662327201 Kcal/mole
 H      2.3003364402    -7.1833544211    -4.0758175876
 F      1.4343443491    -6.9278031529    -4.2359433111
 H      1.0603452943    -6.5952217688    -5.8575421738
 F      1.0407260998    -6.4556795106    -6.7636503601
          4
Energy: -6.327465690830309 Kcal/mole
 H      2.3244623068    -7.0465257637    -4.0530976382
 F      1.4330645276    -6.9350615970    -4.2371485519
 H      1.0569943459    -6.6134097426    -5.8604743429
 F      1.0409038599    -6.4547146806    -6.7634948153
          4
Energy: -6.3278661668476275 Kcal/mole
 H      2.3138628796    -7.1340692157    -4.0789357010
 F      1.4336268027    -6.9304176191    -4.2357779024
 H      1.0534280064    -6.5993301930    -5.8567586895
 F      1.0328989852    -6.4531543972    -6.7618002333
          4
Energy: -6.327887343464397 Kcal/mole
 H      2.2722349908    -7.2740464698    -4.1001708347
 F      1.4358350660    -6.9229921493    -4.2346514276
 H      1.0621195702    -6.5782260826    -5.8538552186
 F      1.0324379178    -6.4542739215    -6.7619542557
          4
Energy: -6.327768299202319 Kcal/mole
 H      2.1775548583    -7.4463655721    -4.1131551794
 F      1.4408576283    -6.9138510191    -4.2339626381
 H      1.0794840998    -6.5542879532    -5.8483904207
 F      1.0326614445    -6.4594179978    -6.7592671031
          4
Energy: -6.3276522978804906 Kcal/mole
 H      2.1669950886    -7.4633998495    -4.1263572578
 F      1.4414177996    -6.9129473900    -4.2332622984
 H      1.0776935544    -6.5446578155    -5.8473514625
 F      1.0327564288    -6.4599288544    -6.7593222174
          4
Energy: -6.3273981633327026 Kcal/mole
 H      2.2854113132    -7.2521741954    -4.0777301029
 F      1.4368820858    -6.9403251831    -4.2314745134
 H      1.0645429426    -6.5896220234    -5.8521614558
 F      1.0334540384    -6.4575436070    -6.7590670584
          4
Energy: -6.32793853542023 Kcal/mole
 H      2.2704159513    -7.2669767314    -4.0897065578
 F      1.4235126270    -6.9468648221    -4.2352130000
 H      1.0591553803    -6.5912413307    -5.8522309759
 F      1.0337398361    -6.4574577065    -6.7590633705
          4
Energy: -6.327725248009244 Kcal/mole
 H      2.2743573411    -7.2840887495    -4.0972275638
 F      1.4355656157    -6.9412059106    -4.2377579879
 H      1.0596835907    -6.5929662475    -5.8574436910
 F      1.0314403408    -6.4656349501    -6.7651209792
          4
Energy: -6.327681698857532 Kcal/mole
 H      2.1554733329    -7.4946113326    -4.1276079237
 F      1.4312589285    -6.9433092293    -4.2392703052
 H      1.0714957166    -6.5615250079    -5.8540615876
 F      1.0308137348    -6.4673028352    -6.7653003919
          4
Energy: -6.3273675662622395 Kcal/mole
 H      2.1635239025    -7.4786439900    -4.1049221076
 F      1.4308318644    -6.9441562600    -4.2404737353
 H      1.0764708831    -6.5687908589    -5.8550803981
 F      1.0305498137    -6.4669173986    -6.7652463464
          4
Energy: -6.327847838401567 Kcal/mole
 H      2.2799652717    -7.2552764688    -4.1001224357
 F      1.4246549189    -6.9560053908    -4.2407283469
 H      1.0535076785    -6.6006543997    -5.8583869637
 F      1.0317679586    -6.4652271114    -6.7650709407
          4
Energy: -6.327857459076597 Kcal/mole
 H      2.3086187644    -7.0447262927    -4.0522286536
 F      1.4156779803    -6.9544836230    -4.2403828899
 H      1.0482658407    -6.6331072190    -5.8637528863
 F      1.0320460260    -6.4635055643    -6.7647862909
          4
Energy: -6.327670805249284 Kcal/mole
 H      2.3276707741    -6.9512304850    -4.0616874434
 F      1.4295245426    -6.9431543846    -4.2465039019
 H      1.0446554751    -6.6431085164    -5.8669959621
 F      1.0169018260    -6.4732139577    -6.7676926779
          4
Energy: -6.327941820496505 Kcal/mole
 H      2.3225442736    -6.9365959736    -4.0530526050
 F      1.4253412478    -6.9438834991    -4.2424268969
 H      1.0398223910    -6.6454735356    -5.8673101234
 F      1.0171582100    -6.4730884989    -6.7676760123
          4
Energy: -6.327906174161171 Kcal/mole
 H      2.3225710875    -7.0064842387    -4.0644302946
 F      1.4253398253    -6.9401760882    -4.2418233368
 H      1.0394818091    -6.6375412741    -5.8658209907
 F      1.0171762770    -6.4735092871    -6.7677550074
          4
Energy: -6.327953028457614 Kcal/mole
 H      2.3112925968    -6.8353862606    -4.0335316201
 F      1.4259381232    -6.9492524405    -4.2434624401
 H      1.0418649370    -6.6632653183    -5.8709633306
 F      1.0170498576    -6.4721446860    -6.7674822181
          4
Energy: -6.3279085870896665 Kcal/mole
 H      2.3235306828    -6.9834976370    -4.0622763999
 F      1.4252889210    -6.9413954743    -4.2419375959
 H      1.0378414682    -6.6391040137    -5.8660676664
 F      1.0172632933    -6.4734263873    -6.7677419218
          4
Energy: -6.3279340605611765 Kcal/mole
 H      2.3211373110    -7.0314007659    -4.0683873272
 F      1.4254158839    -6.9388543240    -4.2416134254
 H      1.0424108055    -6.6318904991    -5.8648898927
 F      1.0170209006    -6.4738090476    -6.7678044000
          4
Energy: -6.327479243872915 Kcal/mole
 H      2.3149911449    -6.8474885696    -4.0432016515
 F      1.4257419238    -6.9486104410    -4.2429494673
 H      1.0377000449    -6.6578259964    -5.8697169656
 F      1.0172707955    -6.4724332294    -6.7675483349
          4
Energy: -6.32794269775917 Kcal/mole
 H      2.3068207424    -6.8119487514    -4.0288671158
 F      1.4261753447    -6.9504957462    -4.2437098813
 H      1.0427603974    -6.6700711007    -5.8724502355
 F      1.0187278857    -6.4756276427    -6.7682756537
          4
Energy: -6.32793870448603 Kcal/mole
 H      2.3047075489    -6.8074959439    -4.0232144411
 F      1.4262874448    -6.9507319574    -4.2440097426
 H      1.0429260221    -6.6705606529    -5.8725611027
 F      1.0187190997    -6.4756016730    -6.7682697725
          4
Energy: -6.327833688062412 Kcal/mole
 H      2.2963728123    -6.7765114510    -4.0128661191
 F      1.4267295833    -6.9523756131    -4.2445586972
 H      1.0457495478    -6.6777116627    -5.8742302747
 F      1.0185693181    -6.4752223285    -6.7681812267
          4
Energy: -6.327924364031674 Kcal/mole
 H      2.2429355538    -6.6326923742    -3.9777529219
 F      1.4295643064    -6.9600048828    -4.2464213711
 H      1.0538411860    -6.6972554124    -5.8791811314
 F      1.0181400754    -6.4741855777    -6.7679185952
          4
Energy: -6.327873449587059 Kcal/mole
 H      2.2185294814    -6.5875194582    -3.9644137909
 F      1.4308589921    -6.9624012016    -4.2471289812
 H      1.0592050474    -6.7080489927    -5.8821972043
 F      1.0178555350    -6.4736130032    -6.7677585995
          4
Energy: -6.327772011557613 Kcal/mole
 H      2.2096275722    -6.5700235337    -3.9635310597
 F      1.4313312178    -6.9633293200    -4.2471758081
 H      1.0629214416    -6.7104635889    -5.8830220364
 F      1.0176583888    -6.4734849145    -6.7677148441
          4
Energy: -6.327826047839551 Kcal/mole
 H      2.2503065345    -6.6483560020    -3.9816016459
 F      1.4291732929    -6.9591739636    -4.2462172052
 H      1.0543113193    -6.6928142987    -5.8775958965
 F      1.0142909207    -6.4716187500    -6.7666177730
          4
Energy: -6.327887201084991 Kcal/mole
 H      2.2517318385    -6.6522922242    -3.9814359635
 F      1.4290976838    -6.9589651561    -4.2462259943
 H      1.0536687955    -6.6962744082    -5.8794763397
 F      1.0149000786    -6.4754976021    -6.7686577546
          4
Energy: -6.3278441252404605 Kcal/mole
 H      2.2447278687    -6.6364161529    -3.9786775586
 F      1.4294692282    -6.9598073450    -4.2463723213
 H      1.0550890898    -6.6974922272    -5.8798427924
 F      1.0148247353    -6.4754329996    -6.7686383151
          4
Energy: -6.327931871727628 Kcal/mole
 H      2.2555363740    -6.6588713461    -3.9857884248
 F      1.4288958620    -6.9586161489    -4.2459951063
 H      1.0519444475    -6.6956117982    -5.8792386906
 F      1.0149915513    -6.4755327521    -6.7686703613
          4
Energy: -6.327954757931764 Kcal/mole
 H      2.2473135246    -6.6405819181    -3.9815835175
 F      1.4293320651    -6.9595863607    -4.2462181669
 H      1.0523048224    -6.6984091568    -5.8799508448
 F      1.0149724342    -6.4753843586    -6.7686325832
          4
Energy: -6.327945846488376 Kcal/mole
 H      2.2575393725    -6.6625802574    -3.9879243816
 F      1.4287896075    -6.9584193997    -4.2458817987
 H      1.0509282577    -6.6938533199    -5.8787639325
 F      1.0150454578    -6.4756260353    -6.7686955461
          4
Energy: -6.327990346559545 Kcal/mole
 H      2.2370724989    -6.6344362611    -3.9808464232
 F      1.4197990790    -6.9552911296    -4.2454315900
 H      1.0487467603    -6.6967653857    -5.8793981345
 F      1.0151611812    -6.4754715569    -6.7686619032
          4
Energy: -6.327944240956185 Kcal/mole
 H      2.2474499916    -6.6549400564    -3.9892276495
 F      1.4192485770    -6.9542034507    -4.2449869853
 H      1.0467807518    -6.6927177102    -5.8783292817
 F      1.0152654734    -6.4756862767    -6.7687186033
          4
Energy: -6.327947718875009 Kcal/mole
 H      2.2548458393    -6.6741362525    -3.9915982872
 F      1.4188562444    -6.9531851368    -4.2448612285
 H      1.0456267263    -6.6920634574    -5.8781300257
 F      1.0153266918    -6.4757209833    -6.7687291734
          4
Energy: -6.327943391025087 Kcal/mole
 H      2.2540632120    -6.6710841087    -3.9923998049
 F      1.4188977610    -6.9533470460    -4.2448187098
 H      1.0442471567    -6.6899196051    -5.8775663401
 F      1.0153998747    -6.4758347097    -6.7687590756
          4
Energy: -6.327982232000352 Kcal/mole
 H      2.2693003381    -6.7125095021    -4.0006983873
 F      1.4180894666    -6.9511495246    -4.2443784892
 H      1.0440052998    -6.6841498003    -5.8761932889
 F      1.0154127047    -6.4761407846    -6.7688319128
          4
Energy: -6.327975220777773 Kcal/mole
 H      2.2750157568    -6.7317227667    -4.0027244017
 F      1.4177862769    -6.9501303053    -4.2442710138
 H      1.0430712916    -6.6813055159    -5.8755061407
 F      1.0154622517    -6.4762916673    -6.7688683644
          4
Energy: -6.327989551688802 Kcal/mole
 H      2.2733442424    -6.7251327462    -4.0028518489
 F      1.4178749469    -6.9504798907    -4.2442642530
 H      1.0429420418    -6.6822598393    -5.8757217239
 F      1.0154691081    -6.4762410426    -6.7688569283
          4
Energy: -6.327991856470703 Kcal/mole
 H      2.2733131622    -6.7242884918    -4.0035323516
 F      1.4178765956    -6.9505246764    -4.2442281539
 H      1.0426457105    -6.6822991271    -5.8757217239
 F      1.0154848278    -6.4762389585    -6.7688569283
