          4
Energy: -6.321998159807379 Kcal/mole
 H     -5.9639036260    -3.4434944564    -6.8526861627
 F     -5.3831312367    -3.0209686582    -7.4228303389
 H     -3.7931732884    -2.7733857111    -6.8836979583
 F     -2.9788939170    -2.7119631890    -6.4664865263
          4
Energy: -6.3008066396400295 Kcal/mole
 H     -4.5420050307    -2.3794646500    -6.5581911350
 F     -5.3862369440    -2.3602038440    -6.2007131666
 H     -6.2599844205    -0.9923411747    -6.6766901594
 F     -6.6211282599    -0.2147310716    -7.0019387641
          4
Energy: -6.296975726718472 Kcal/mole
 H     -3.7858522996    -1.5534546294    -4.3912371500
 F     -3.8703892918    -0.8506755989    -4.9741986678
 H     -4.5004815564     0.6452076225    -4.4934611743
 F     -4.8708519356     1.3999595282    -4.1273131944
          4
Energy: -6.2969492748551374 Kcal/mole
 H     -5.2871897871    -1.7703201338    -5.6369076610
 F     -5.1645268528    -1.8044741091    -4.7287907575
 H     -3.6565026477    -1.3768326796    -4.0344289566
 F     -2.7885103381    -1.1423724164    -3.8541327130
          4
Energy: -6.286356372565592 Kcal/mole
 H     -4.6218896452     2.4742713544    -5.0254222505
 F     -4.6577744432     1.9105898732    -4.3030203755
 H     -3.1948065090     1.0616424890    -4.1673958676
 F     -2.3378511546     0.7688786981    -4.3116383141
          4
Energy: -6.29619448165198 Kcal/mole
 H     -4.8275011596     0.8494030299    -5.0931413421
 F     -4.6956820655     0.5408768048    -4.2397221633
 H     -3.6126898760     1.4864136907    -3.2836120785
 F     -3.0472987360     2.1382881591    -2.9733194164
          4
Energy: -6.2691815719847455 Kcal/mole
 H     -5.4645567763     0.0821176357    -5.3022858599
 F     -4.9170747603    -0.6427421741    -5.4277079400
 H     -3.2812724859    -0.5024993374    -4.8111954237
 F     -2.4912747731    -0.2192038036    -4.4416872989
          4
Energy: -6.32239321984116 Kcal/mole
 H     -5.4050489957    -0.6688325253    -4.3945367403
 F     -4.7149160700    -0.6286189144    -4.9970219354
 H     -3.1768313897    -0.9532954187    -4.3549372901
 F     -2.4284098232    -1.1683356496    -3.8706730464
          4
Energy: -6.273952311944129 Kcal/mole
 H     -4.8151847504    -1.5484861229    -5.9932961101
 F     -4.7739871078    -0.6835020779    -5.6916434021
 H     -3.2692752734     0.0178164761    -5.8351203203
 F     -2.4037420224     0.2306181932    -6.0506582998
          4
Energy: -6.3121268863825435 Kcal/mole
 H     -4.2616482811    -0.6140011589    -4.0911187603
 F     -3.9895316171     0.1212907156    -3.6155271493
 H     -2.4029331238     0.0357300999    -2.9685351939
 F     -1.5629591097    -0.1782360589    -2.6692842316
          4
Energy: -6.283672834665879 Kcal/mole
 H     -4.3135535490    -3.1142444970    -3.3285649945
 F     -4.5073212707    -2.3271211252    -3.7572605362
 H     -3.2095303232    -1.2687893205    -3.9116114029
 F     -2.4179311551    -0.8125667031    -3.9898461810
          4
Energy: -6.290809024588555 Kcal/mole
 H     -4.6622568453    -3.4922139092    -4.9531671775
 F     -3.9421606963    -3.8026694439    -5.4285279847
 H     -2.9237885451    -2.5295589659    -5.7997990647
 F     -2.4671184105    -1.7399578789    -5.8939877664
          4
Energy: -6.278047470090598 Kcal/mole
 H     -5.5029580360    -3.7378111741    -6.5557359734
 F     -4.8719493424    -3.8194682150    -5.8953957913
 H     -3.2376438005    -4.1506078937    -6.2723288438
 F     -2.4393753587    -4.3847430307    -6.6581231316
          4
Energy: -6.301732505258769 Kcal/mole
 H     -5.7498430036    -4.0906483914    -7.1852819782
 F     -5.2219447413    -4.7985956864    -6.9382535341
 H     -3.5183193354    -4.5457852647    -6.7790874584
 F     -2.6551920689    -4.2414015364    -6.7220710774
          4
Energy: -6.325183945243225 Kcal/mole
 H     -5.3672755048    -4.4943688793    -6.4602513278
 F     -5.5235169742    -4.3249302513    -5.5726882852
 H     -4.1630796030    -4.3805779929    -4.5661862951
 F     -3.3460010721    -4.4484913258    -4.1555046014
          4
Energy: -6.316434578972348 Kcal/mole
 H     -4.5216751248    -2.4490213040    -5.0481312172
 F     -4.3932299249    -2.3965903619    -4.1416866094
 H     -4.4496253317    -3.9349514549    -3.4296399345
 F     -4.5347182031    -4.8276031087    -3.2377513513
          4
Energy: -6.306015066198597 Kcal/mole
 H     -5.0886242379    -1.4857240253    -3.5030286357
 F     -4.9708291119    -2.3587678646    -3.7576023244
 H     -5.2219562452    -3.5803879225    -2.5973131343
 F     -5.4272985252    -4.1351728320    -1.8966439882
          4
Energy: -6.2721795386942745 Kcal/mole
 H     -6.3877523455    -4.6763899759    -5.7359882894
 F     -6.2750248563    -4.2654808740    -4.9239936939
 H     -5.2512847490    -4.9240530503    -3.7996353301
 F     -4.6699846311    -5.3772080639    -3.2540808354
          4
Energy: -6.289124525451655 Kcal/mole
 H     -7.0603381917    -5.3202400305    -2.7845590405
 F     -7.0761935543    -5.8038480456    -3.5635076237
 H     -5.6303364411    -6.2815747974    -4.2721712840
 F     -4.7964283879    -6.4904991840    -4.5912903204
          4
Energy: -6.303269518953016 Kcal/mole
 H     -6.8630804062    -6.4767800273    -2.9494577553
 F     -7.0714280063    -5.7255075606    -3.4322309507
 H     -6.7344899733    -5.6243955046    -5.1016733870
 F     -6.4673154962    -5.7112263340    -5.9745807165
          4
Energy: -6.319494188456929 Kcal/mole
 H     -5.7645362227    -6.6294634439    -3.8229806019
 F     -5.8067355269    -5.7135000779    -3.8339044666
 H     -6.6329333449    -5.0414639636    -5.1346822629
 F     -7.1051926370    -4.8168643911    -5.8879519312
          4
Energy: -6.322280538552775 Kcal/mole
 H     -5.8227499923    -6.0656158331    -3.8600344161
 F     -5.3095432457    -5.3262589075    -4.0357022044
 H     -5.7980979682    -4.4102183871    -5.3934921042
 F     -6.1871925909    -4.0354118980    -6.1344472110
          4
Energy: -6.311565268378558 Kcal/mole
 H     -5.5282198284    -5.2667405251    -3.6236215374
 F     -5.6254268199    -4.3935436783    -3.3610057200
 H     -6.5673937819    -3.4189696340    -4.3667412872
 F     -7.0985222702    -2.9947840351    -4.9822557927
          4
Energy: -6.315565004730388 Kcal/mole
 H     -6.1005434026    -3.3609096163    -2.6670228855
 F     -5.8598855506    -3.9481561537    -3.3289249194
 H     -6.3720431876    -3.5007433426    -4.8892420294
 F     -6.7486623911    -3.0835052974    -5.6137828421
          4
Energy: -6.315580330693479 Kcal/mole
 H     -5.1261618791    -3.7669199853    -3.5553004491
 F     -5.3866365532    -2.8991047575    -3.6965048206
 H     -5.9911435448    -2.6444754310    -5.2604998597
 F     -6.2640768725    -2.7383174789    -6.1308963605
          4
Energy: -6.296675819452105 Kcal/mole
 H     -7.1207504465    -1.6655157456    -1.7815392176
 F     -6.4529643868    -1.5879633087    -2.4051868729
 H     -6.7958353783    -1.9095619756    -4.0296959423
 F     -7.0755768937    -2.1031269665    -4.8812628973
          4
Energy: -6.2972313343580595 Kcal/mole
 H     -7.2224280962    -1.9985311278    -2.6463119277
 F     -6.3772550000    -1.8720799244    -2.9788499414
 H     -5.8332658275    -2.8535978496    -4.2601261728
 F     -5.6298882186    -3.4384806354    -4.9364683014
          4
Energy: -6.299013004177709 Kcal/mole
 H     -4.9232529722    -3.2878457170    -1.3682296380
 F     -5.3271383645    -2.9728535593    -2.1288514432
 H     -6.2777187609    -4.1532949279    -2.9665405589
 F     -6.7423553817    -4.8884801795    -3.2572370611
          4
Energy: -6.31515267774887 Kcal/mole
 H     -5.9978611495    -2.3661232136    -3.8529835202
 F     -5.7472774512    -2.8435227075    -3.1112379214
 H     -6.6464038928    -4.2159619375    -2.6939422184
 F     -7.2199703744    -4.9204569819    -2.5690533736
          4
Energy: -6.307120455875008 Kcal/mole
 H     -5.2602784837    -2.3122798557    -4.2052049010
 F     -5.2754915130    -3.1469253510    -4.5847104491
 H     -5.8051464750    -4.4268368617    -3.6012690027
 F     -6.1622697616    -4.9769626965    -2.9603996525
          4
Energy: -6.316800793402649 Kcal/mole
 H     -4.9644354166    -3.9328113986    -5.4014252754
 F     -4.4544692964    -3.8211139826    -4.6475371911
 H     -4.9027013279    -4.7964361330    -3.3127919242
 F     -5.2989501271    -5.3611931783    -2.7087013938
          4
Energy: -6.323993158323276 Kcal/mole
 H     -4.1589223572    -2.9647975382    -4.3316535390
 F     -3.7699835093    -2.9209095763    -3.5023831251
 H     -4.1059189313    -4.2552262880    -2.5235679477
 F     -4.3934533467    -5.0461572426    -2.1593685723
          4
Energy: -6.2977593461463925 Kcal/mole
 H     -3.5456158055    -4.3139683962    -5.2691414863
 F     -3.8685523038    -3.9185227302    -4.5074172951
 H     -4.4200366249    -4.8936010395    -3.2047481373
 F     -4.6940879567    -5.5653687378    -2.6439335271
          4
Energy: -6.300186176637283 Kcal/mole
 H     -3.8464893110    -3.0003793517    -4.5745475107
 F     -3.7516910422    -3.8225151173    -4.9695096242
 H     -4.6941946654    -5.0902814904    -4.2608357353
 F     -5.2503810774    -5.6364283238    -3.7778561171
          4
Energy: -6.312528322066498 Kcal/mole
 H     -1.8346326513    -4.7239129502    -3.9140172192
 F     -2.5502581577    -4.5458632251    -4.4590561445
 H     -4.0553309723    -5.1750541923    -3.9176724760
 F     -4.7588680741    -5.5939463213    -3.5048118085
          4
Energy: -6.3219842421002 Kcal/mole
 H     -2.1880941053    -4.5886564235    -4.6502728003
 F     -2.2407634590    -5.2461721550    -5.2872877154
 H     -2.9407393931    -6.7102993641    -4.7814358440
 F     -3.3563904736    -7.4158615483    -4.3687553578
          4
Energy: -6.284996845699482 Kcal/mole
 H     -2.3433966011    -4.8944139851    -6.2785102760
 F     -2.8224100172    -5.5276358248    -6.7372751930
 H     -3.4222614577    -6.7612266327    -5.6783035467
 F     -3.5914919773    -7.2910907033    -4.9492671293
          4
Energy: -6.313347706108459 Kcal/mole
 H     -1.4600874667    -5.3884372660    -6.2943730005
 F     -2.3146114839    -5.0605857312    -6.3508626018
 H     -3.4759373339    -6.2339579064    -5.9470305683
 F     -3.9328975135    -7.0011482398    -5.7384750923
          4
Energy: -6.324548200322454 Kcal/mole
 H     -2.4115550908    -4.1152775104    -6.0803248707
 F     -1.9285837149    -4.8171627067    -5.7412307521
 H     -2.8568268633    -6.2249654925    -5.5135856365
 F     -3.4969542840    -6.8789032856    -5.4544988542
          4
Energy: -6.320006067509098 Kcal/mole
 H     -2.0601557180    -4.0920902887    -5.4557923040
 F     -2.4396095659    -4.5322858046    -6.1651100644
 H     -2.4203061640    -6.2306853036    -6.0887299336
 F     -2.2922358441    -7.1165797386    -5.8895364515
          4
Energy: -6.304441815027644 Kcal/mole
 H     -3.0392666031    -4.2058194374    -6.7236625874
 F     -2.6979286806    -4.3789191802    -5.8903475800
 H     -2.6219209244    -6.0589689878    -5.5674826683
 F     -2.7049966612    -6.9710726375    -5.6128076517
          4
Energy: -6.317805177181867 Kcal/mole
 H     -2.7432131464    -4.2530090298    -6.3897855353
 F     -1.9306745727    -4.6763025295    -6.3511503254
 H     -2.0750747937    -6.3488710104    -6.5146436541
 F     -2.3567014465    -7.2181906326    -6.5911866018
          4
Energy: -6.323833505916355 Kcal/mole
 H     -0.4215607528    -4.5029317736    -7.2704231097
 F     -0.5242533781    -5.1488948072    -6.6277140122
 H     -1.8264940202    -6.2324766661    -6.8421728681
 F     -2.5511017862    -6.7232424996    -7.1160003359
          4
Energy: -6.311481401929882 Kcal/mole
 H     -1.3463360996    -4.2743554361    -6.1128501875
 F     -1.0475377338    -5.0577556824    -6.4841891036
 H     -2.3598011092    -5.9915787463    -7.0437113448
 F     -3.1906494717    -6.3219720576    -7.2472310204
          4
Energy: -6.307599787168101 Kcal/mole
 H     -1.0423001972    -3.6994546987    -6.0933749625
 F     -1.0268570074    -4.4429941857    -6.6298444761
 H     -2.3929955967    -5.4798668072    -6.4882609682
 F     -3.1692836969    -5.9306815542    -6.3010929971
          4
Energy: -6.323182423978551 Kcal/mole
 H     -0.4960127130    -4.3444315042    -7.4770100247
 F     -0.8937548452    -4.3307489391    -6.6508726368
 H     -2.1305253705    -5.4652353998    -6.4595000970
 F     -2.7758194367    -6.1113536780    -6.5432601037
          4
Energy: -6.327866025890273 Kcal/mole
 H     -0.4958565534    -3.8304814741    -6.7655227497
 F     -1.2247332909    -4.1385609942    -7.2288959371
 H     -1.8978355581    -5.5701624247    -6.6194247782
 F     -2.1283009108    -6.3328021980    -6.1653815012
          4
Energy: -6.300695430395251 Kcal/mole
 H     -0.4435971495    -3.8688049006    -6.7468694949
 F     -1.3549961676    -3.8811996822    -6.8473045444
 H     -1.9162067516    -5.4390513955    -6.6126561281
 F     -2.0237946693    -6.3332711201    -6.4403629935
          4
Energy: -6.311931755460762 Kcal/mole
 H     -0.1465363738    -3.8650683352    -6.8306198833
 F     -1.0528513386    -3.9878039204    -6.7641506370
 H     -1.4825645753    -5.5782949110    -6.2645823185
 F     -1.4909928257    -6.4574462334    -6.0039850873
          4
Energy: -6.318705159187687 Kcal/mole
 H     -0.2180265305    -3.9129415287    -7.2515344113
 F     -0.9493988592    -4.4246412463    -7.4616460859
 H     -1.2462886843    -5.8250869725    -6.5516738331
 F     -1.2848361248    -6.5480745992    -5.9889199024
          4
Energy: -6.324593414928415 Kcal/mole
 H     -0.7929665839    -3.7025952385    -7.0033351690
 F     -1.1792155198    -4.4011112246    -7.4547509161
 H     -1.1149783042    -5.8583131561    -6.5960955812
 F     -1.0005934568    -6.5463244634    -6.0007422846
          4
Energy: -6.325721097292785 Kcal/mole
 H     -2.3510557957    -4.3854240946    -7.4625391694
 F     -1.4597792231    -4.3336221342    -7.2531791255
 H     -0.8573045869    -5.5369635648    -6.2252865464
 F     -0.7026214497    -6.2561802102    -5.6778474685
          4
Energy: -6.326674554711303 Kcal/mole
 H     -1.1701334253    -3.5530434531    -6.8403113511
 F     -1.2273349105    -4.3365732793    -7.3132785820
 H     -1.0225834019    -5.7437088499    -6.3887143986
 F     -0.8809275726    -6.3916472537    -5.7554700138
          4
Energy: -6.317789703263088 Kcal/mole
 H     -1.7701340859    -3.7527187306    -6.7929826635
 F     -1.4415286357    -4.3794565802    -7.3761697055
 H     -0.9884950430    -5.8511764819    -6.6376337113
 F     -0.7712562663    -6.5436541509    -6.0771241289
          4
Energy: -6.322110424183393 Kcal/mole
 H     -2.4399130935    -4.2004840865    -7.1070465856
 F     -1.6129608353    -4.4722626549    -7.3954479939
 H     -0.9986233815    -5.8201449414    -6.5996331558
 F     -0.8040288303    -6.5530168813    -6.0839581803
          4
Energy: -6.310485802705557 Kcal/mole
 H     -2.4300257274    -4.1256604386    -7.1448131308
 F     -1.6744823716    -4.5478311203    -7.4478232841
 H     -1.1080075073    -5.7347212209    -6.3575901462
 F     -0.9779403368    -6.3438453174    -5.6845824447
          4
Energy: -6.317509149487023 Kcal/mole
 H     -1.8950418275    -3.6646704817    -7.0383448506
 F     -1.9700354953    -4.5154178316    -7.3722518684
 H     -1.4238825403    -5.7408691610    -6.3309329490
 F     -1.1295082402    -6.2702171996    -5.6424393575
          4
Energy: -6.308344558316833 Kcal/mole
 H     -1.5933530795    -3.7751239067    -7.3813831654
 F     -2.1503541938    -4.4817466065    -7.2043997797
 H     -1.4396294382    -5.6683660714    -6.1719272460
 F     -0.8939978000    -6.1591862038    -5.6221357283
          4
Energy: -6.321589665448357 Kcal/mole
 H     -3.1236626666    -4.5270876329    -7.0764188752
 F     -2.2289241384    -4.6058777929    -7.2611459082
 H     -1.3202791335    -5.5852845348    -6.2084716741
 F     -0.9636558003    -6.1414071456    -5.5725184997
          4
Energy: -6.325111757314687 Kcal/mole
 H     -3.1111140727    -4.8386927204    -7.2527445412
 F     -2.2761565547    -4.4851902279    -7.1157374942
 H     -1.2491803454    -5.4752416277    -6.2184678297
 F     -0.8421975298    -6.1353062116    -5.7290102392
          4
Energy: -6.32503504383584 Kcal/mole
 H     -3.1182522819    -4.7108092234    -6.9087366710
 F     -2.2527016686    -4.5790028433    -7.1813870221
 H     -1.1257443656    -5.4381830802    -6.2529982616
 F     -0.6826494149    -5.9598743297    -5.6427572397
          4
Energy: -6.324384901077281 Kcal/mole
 H     -2.9116527399    -4.6807322145    -7.3975591847
 F     -2.3432058607    -4.3401542563    -6.7637107802
 H     -1.1689237085    -5.4135070269    -6.1700325238
 F     -0.6173179430    -6.1097408682    -5.9422639619
          4
Energy: -6.32338584004782 Kcal/mole
 H     -3.1250635509    -4.8809524388    -7.1101497655
 F     -2.3800537679    -4.4461544228    -6.7990226073
 H     -1.0886617431    -5.4550292933    -6.3152506965
 F     -0.5230516722    -6.1428212880    -6.0963525017
          4
Energy: -6.3210009838203405 Kcal/mole
 H     -3.1215335861    -4.8809355012    -7.2353399664
 F     -2.4324213389    -4.4787896500    -6.7833532131
 H     -1.0974041627    -5.4978524075    -6.4632625767
 F     -0.4847809697    -6.1778922255    -6.4073370072
          4
Energy: -6.327736026479442 Kcal/mole
 H     -3.1490565405    -4.7436248995    -6.8011836771
 F     -2.3052747074    -4.3914933785    -6.8713592422
 H     -1.0531614830    -5.4845194586    -6.5523511054
 F     -0.5139477874    -6.1990042942    -6.3532305131
          4
Energy: -6.3269444485716235 Kcal/mole
 H     -2.9667603655    -4.3585187674    -6.2719127035
 F     -2.2962641765    -4.3770209798    -6.8971978615
 H     -1.1030198648    -5.5429216857    -6.6233500063
 F     -0.5489269377    -6.2121268474    -6.3300336589
          4
Energy: -6.326797769628172 Kcal/mole
 H     -2.9283569785    -4.3299253016    -6.2189833157
 F     -2.2965458349    -4.3640665853    -6.8827137214
 H     -1.1032193574    -5.5351007108    -6.6321549474
 F     -0.5484986352    -6.2056693975    -6.3431712855
          4
Energy: -6.327313974327126 Kcal/mole
 H     -2.7750535759    -4.1356436184    -6.1271216117
 F     -2.2763537605    -4.3425473536    -6.8683222178
 H     -1.0796613240    -5.5220532904    -6.6243722793
 F     -0.5033338760    -6.1627421282    -6.3109181587
          4
Energy: -6.3277046539429875 Kcal/mole
 H     -3.0472032137    -4.4722934004    -6.4037296643
 F     -2.2619168511    -4.3246888606    -6.8536487998
 H     -1.0433443978    -5.4709963732    -6.5763134759
 F     -0.5052604050    -6.1654505797    -6.3134675672
          4
Energy: -6.327971489755328 Kcal/mole
 H     -3.0431482116    -4.4744095690    -6.3974174468
 F     -2.2621319596    -4.3245766027    -6.8539836483
 H     -1.0403464768    -5.4686472533    -6.5762150695
 F     -0.5054194378    -6.1655751951    -6.3134727874
