          4
Energy: -6.32632466342443 Kcal/mole
 H      3.3482845859    -6.7797860738    -4.2875604768
 F      2.4768022543    -6.5056962478    -4.2082994334
 H      1.6895687785    -6.3098493353    -5.6918222316
 F      1.4371672641    -6.2644127684    -6.5722300882
          4
Energy: -6.3186596991455986 Kcal/mole
 H      2.8944422380    -6.8911636144    -4.0221476653
 F      2.2207664599    -6.2821212037    -4.1491015469
 H      1.6801740860    -6.1355089820    -5.7463788532
 F      1.5135382178    -6.1454220106    -6.6480568552
          4
Energy: -6.326891109866665 Kcal/mole
 H      3.0161586950    -6.7790528835    -4.0965895109
 F      2.3238399851    -6.1899955289    -4.2174002596
 H      1.6234052293    -6.1842430577    -5.7589580541
 F      1.3572189956    -6.3104785715    -6.6273464949
          4
Energy: -6.324224080417423 Kcal/mole
 H      3.3339996780    -5.7539038558    -4.2769067163
 F      2.4597643580    -6.0232000739    -4.2130228194
 H      1.6150299625    -6.1478865576    -5.6869673191
 F      1.3108524806    -6.1774275549    -6.5515437408
          4
Energy: -6.322661671166941 Kcal/mole
 H      2.2389810218    -7.0704448111    -3.7583390904
 F      2.2516335609    -6.2176717828    -4.0952472020
 H      1.7466113948    -6.0834837419    -5.6986073245
 F      1.4369361141    -6.1699100345    -6.5573975879
          4
Energy: -6.31760107702388 Kcal/mole
 H      3.2650748547    -5.6775932298    -4.2312702515
 F      2.4511754493    -6.0984093585    -4.1942493983
 H      1.6641842254    -6.2585936660    -5.6886441379
 F      1.3735922157    -6.2953440847    -6.5576059843
          4
Energy: -6.322458253358434 Kcal/mole
 H      2.5390176253    -5.3616361597    -3.9742754971
 F      2.2918621638    -6.2206538024    -4.1789505262
 H      1.6918411676    -6.4128579919    -5.7540521533
 F      1.3804867449    -6.3497613253    -6.6142650538
          4
Energy: -6.325239851283413 Kcal/mole
 H      2.7862817463    -5.5994758004    -3.9235561607
 F      2.1174260574    -6.2035856854    -4.0925896316
 H      1.5867536932    -6.3317698794    -5.6950564224
 F      1.4136709861    -6.2830869418    -6.5942568162
          4
Energy: -6.324256663794586 Kcal/mole
 H      2.7971459071    -6.7203982203    -3.9457415238
 F      1.9941445669    -6.2928367654    -4.0609328861
 H      1.5485521570    -6.1780046191    -5.6859921055
 F      1.4770396115    -6.2033905471    -6.5998468590
          4
Energy: -6.321783789540916 Kcal/mole
 H      2.6433631873    -5.9857849258    -3.7791150213
 F      1.8177288143    -6.2743372776    -4.0547133202
 H      1.6283498195    -6.4465377831    -5.7194448901
 F      1.6762246244    -6.5014027105    -6.6335492839
          4
Energy: -6.327664277232429 Kcal/mole
 H      2.7564940171    -6.8615871395    -3.7385185950
 F      2.0354914581    -6.3665612086    -4.0141880303
 H      1.7751764228    -6.3268249971    -5.6895637484
 F      1.7779695661    -6.4110094936    -6.6026870527
          4
Energy: -6.320494996070238 Kcal/mole
 H      1.5667599421    -5.8425778842    -3.5781217782
 F      2.0543380525    -6.5096829908    -3.9757740923
 H      1.9846490298    -6.4553472660    -5.6758027386
 F      1.8444484134    -6.2839630448    -6.5656680295
          4
Energy: -6.3223871114266785 Kcal/mole
 H      2.4385488420    -6.7313194604    -3.4952868304
 F      1.9046286622    -6.1431210352    -3.9533707247
 H      1.9296870668    -6.2047819415    -5.6505239306
 F      2.0510580333    -6.3763344914    -6.5431200381
          4
Energy: -6.324262188849332 Kcal/mole
 H      2.5943144912    -6.0700847260    -3.4717281382
 F      1.8027623008    -5.9049388732    -3.9042336031
 H      1.7563375047    -6.3023734632    -5.5415112393
 F      1.9017056176    -6.5639939509    -6.4082936988
          4
Energy: -6.323905458815261 Kcal/mole
 H      2.1363563133    -5.4743435253    -3.6115654436
 F      1.5351916908    -6.0985443431    -3.9113377500
 H      1.6327688136    -6.4977783609    -5.5670040166
 F      1.8322408634    -6.6041044181    -6.4557079441
          4
Energy: -6.3257446232954635 Kcal/mole
 H      2.2713701473    -6.2302748803    -3.4641086022
 F      1.4891127272    -6.0897493654    -3.9215087642
 H      1.6140585750    -6.2877670070    -5.6097960848
 F      1.8663994391    -6.4444717788    -6.4773539807
          4
Energy: -6.31893628218711 Kcal/mole
 H      0.6290136691    -6.6104224586    -3.6968415133
 F      1.3857205689    -6.1422519130    -3.9184267295
 H      1.7911710426    -6.0868371188    -5.5816500240
 F      1.8567088789    -6.1829144013    -6.4912449601
          4
Energy: -6.326698284857798 Kcal/mole
 H      1.0065500039    -5.1112114517    -3.7099179232
 F      1.4536968530    -5.8923652692    -3.8852673139
 H      1.7639308928    -6.1668281901    -5.5344747011
 F      1.8450708604    -6.1372642902    -6.4473992771
          4
Energy: -6.321813379541197 Kcal/mole
 H      0.5889563428    -6.2939045035    -3.6837752140
 F      1.4242108368    -5.9579536070    -3.8580621194
 H      1.8096972068    -5.9323655034    -5.5237096885
 F      1.8208040468    -6.0028561738    -6.4379288655
          4
Energy: -6.32416882916317 Kcal/mole
 H      1.7904355353    -6.7498173979    -3.4883213124
 F      1.6086090016    -5.9255191795    -3.8465957306
 H      1.7163433351    -5.8729884627    -5.5280534922
 F      1.8278341926    -6.0377607066    -6.4232120795
          4
Energy: -6.317038485209764 Kcal/mole
 H      0.8775419541    -6.2698903589    -3.5903502542
 F      1.7257363116    -6.0332118767    -3.8461600037
 H      1.9293409091    -5.9879115038    -5.5276569572
 F      1.8126094495    -6.0141725122    -6.4368176282
          4
Energy: -6.325084819524591 Kcal/mole
 H      1.4430786831    -5.5371425710    -3.4426658031
 F      1.8039095684    -6.2528839191    -3.8880918853
 H      1.7894349780    -6.1034494055    -5.5828826733
 F      1.6800194499    -5.8511345317    -6.4576709029
          4
Energy: -6.325605382667334 Kcal/mole
 H      1.0008853810    -6.4136744190    -3.5067526395
 F      1.7823739541    -6.5466303606    -3.9677161172
 H      1.7047704514    -6.1546899045    -5.6126445702
 F      1.4804042188    -5.9152707096    -6.4689314630
          4
Energy: -6.327547635142992 Kcal/mole
 H      2.4519705987    -6.4526006332    -3.7657576768
 F      1.5968740013    -6.6037773262    -4.0604514445
 H      1.2895760053    -6.1207440622    -5.6601071577
 F      1.3034665692    -5.8125938353    -6.5236692515
          4
Energy: -6.327704271538948 Kcal/mole
 H      2.3718358412    -7.3682093431    -4.0473592230
 F      1.5591470273    -6.9547299731    -4.1446253645
 H      1.3415717302    -6.1420924858    -5.6189489700
 F      1.4031609875    -5.7628475333    -6.4515767556
          4
Energy: -6.322102864395731 Kcal/mole
 H      2.6801642971    -7.1337729541    -4.1856786699
 F      1.7955199676    -6.8932567869    -4.2067827843
 H      1.2497804818    -6.2930758462    -5.6803292803
 F      1.1334148302    -5.9857684075    -6.5364310110
          4
Energy: -6.326625677320635 Kcal/mole
 H      2.6058742725    -6.7859960007    -4.0417809697
 F      1.9316223414    -7.2844429648    -4.4130274612
 H      1.2416547289    -6.6628596698    -5.8271263699
 F      0.9781717250    -6.1948694594    -6.5703967578
          4
Energy: -6.325643891649406 Kcal/mole
 H      2.9414709593    -7.2703198277    -4.3619298435
 F      2.0265803300    -7.3091083202    -4.4105054463
 H      1.3582033541    -6.6322545864    -5.8152289022
 F      1.1665503068    -6.2160105344    -6.6095204095
          4
Energy: -6.3248636045698845 Kcal/mole
 H      2.6736188468    -6.8242930268    -4.0240354511
 F      1.9749487080    -7.2987470909    -4.3813061863
 H      1.3446030652    -6.6980972698    -5.8404808131
 F      1.1124306554    -6.2467634214    -6.6042103002
          4
Energy: -6.326093231790821 Kcal/mole
 H      2.5263838701    -6.6187928356    -3.9308224680
 F      1.9768813793    -7.2187272666    -4.3539237456
 H      1.3585492587    -6.7403573861    -5.8638661902
 F      1.1136788541    -6.3393376381    -6.6513372352
          4
Energy: -6.32699601626922 Kcal/mole
 H      1.1680155002    -7.0495392189    -3.7054427018
 F      1.8245170471    -7.1620002166    -4.3357182312
 H      1.4445265095    -6.6062091558    -5.8890183086
 F      1.0740933273    -6.2659976928    -6.6557806043
          4
Energy: -6.3203394904672905 Kcal/mole
 H      0.9116414641    -7.1778514522    -3.7710264096
 F      1.7006123359    -7.0714879536    -4.2261096652
 H      1.4933329409    -6.6048388100    -5.8374658370
 F      1.2223757745    -6.3688845991    -6.6811463597
          4
Energy: -6.325947381784999 Kcal/mole
 H      1.0409984962    -6.7847599221    -3.6494587535
 F      1.6482982925    -7.1858952047    -4.2072817025
 H      1.5285040837    -6.7371643420    -5.8474502037
 F      1.3233712132    -6.3947157142    -6.6730036198
          4
Energy: -6.326799621805151 Kcal/mole
 H      1.8008855807    -6.3701423152    -3.6839907769
 F      1.5777374560    -7.1019885042    -4.1894559785
 H      1.4197796544    -6.8284284265    -5.8621390448
 F      1.3801107970    -6.5060732172    -6.7196951659
          4
Energy: -6.325988779917054 Kcal/mole
 H      0.9477123237    -7.0379901473    -3.7068696431
 F      1.7102522511    -7.0835199786    -4.2141653100
 H      1.5056641182    -6.7648291846    -5.8679986295
 F      1.2326063279    -6.5591613745    -6.7188976805
          4
Energy: -6.327776323756211 Kcal/mole
 H      0.7891693817    -7.3361378409    -3.8026563663
 F      1.5843417019    -7.0765713588    -4.1784425058
 H      1.5055643786    -6.7089628355    -5.8347117491
 F      1.2834276752    -6.5511976168    -6.7102997920
          4
Energy: -6.324955274892147 Kcal/mole
 H      0.8840188593    -7.3592325806    -3.7477857808
 F      1.6549054985    -7.0775696992    -4.1567953291
 H      1.5394938797    -6.6596497134    -5.8047634533
 F      1.3047920956    -6.4707619983    -6.6708613136
          4
Energy: -6.325618580135824 Kcal/mole
 H      1.0703021982    -6.6522630120    -3.6904829509
 F      1.5978073702    -7.1926898718    -4.2106426406
 H      1.5891662233    -6.7696643209    -5.8435479227
 F      1.4699485823    -6.4016013442    -6.6749357981
          4
Energy: -6.325341499791705 Kcal/mole
 H      1.0139425411    -6.9252322478    -3.7614344100
 F      1.7907739289    -7.1084349130    -4.2129416397
 H      1.6958059119    -6.7358128870    -5.8656457680
 F      1.4655491700    -6.4778149831    -6.7149442517
          4
Energy: -6.324856666670655 Kcal/mole
 H      2.3281153757    -6.7614073223    -3.8364062511
 F      1.6348898026    -7.1957684722    -4.2507221889
 H      1.4456304061    -6.7904004521    -5.8982665087
 F      1.4993639037    -6.4558643268    -6.7503740678
          4
Energy: -6.327143246987816 Kcal/mole
 H      1.5041190071    -6.4468815997    -3.6977915313
 F      1.7606818643    -7.1361640823    -4.2454722408
 H      1.6023578520    -6.8471447978    -5.9062675608
 F      1.4519221145    -6.5366340491    -6.7558799218
          4
Energy: -6.3274481641798275 Kcal/mole
 H      2.0796178463    -6.3032832702    -3.7543966293
 F      1.7395924961    -7.0225135074    -4.2104444635
 H      1.5101794896    -6.7850701301    -5.8702903982
 F      1.4557528899    -6.4902075041    -6.7368830228
          4
Energy: -6.325453592579549 Kcal/mole
 H      0.9781328619    -6.8506171072    -3.7769192542
 F      1.7661403676    -6.9838179861    -4.2265754528
 H      1.6520668329    -6.7682796289    -5.9114591253
 F      1.4156746334    -6.6206201200    -6.7850748289
          4
Energy: -6.326535668427027 Kcal/mole
 H      2.0140630096    -6.2843693477    -3.8111062708
 F      1.7008102560    -7.0421924866    -4.2215521290
 H      1.4249877058    -6.9328339288    -5.8935833981
 F      1.3286944604    -6.6985348099    -6.7749008970
          4
Energy: -6.325373461998936 Kcal/mole
 H      2.1967525759    -6.4723897073    -3.8617866457
 F      1.6090503108    -7.0677167960    -4.2373937609
 H      1.3534453839    -6.8537799002    -5.9087864966
 F      1.3303755323    -6.6016987141    -6.7901558048
          4
Energy: -6.323729679235953 Kcal/mole
 H      1.0399586209    -6.6163269681    -3.7150254945
 F      1.6565068989    -7.0717597945    -4.2183525865
 H      1.5298640074    -6.8746839253    -5.9094052955
 F      1.3068359232    -6.6702247621    -6.7750518309
          4
Energy: -6.326365813400969 Kcal/mole
 H      0.7645712478    -7.4753803368    -3.8376023195
 F      1.5448795451    -7.1472442243    -4.1902135116
 H      1.4978642685    -6.8721835848    -5.8550805396
 F      1.2988031718    -6.7930575286    -6.7467098050
          4
Energy: -6.326072121289656 Kcal/mole
 H      0.7482992840    -7.2142933150    -3.7472762158
 F      1.5469983381    -7.2929141354    -4.1908836861
 H      1.4900052451    -6.9790983020    -5.8518589010
 F      1.2845805002    -6.7933418055    -6.7260351979
          4
Energy: -6.327171396494464 Kcal/mole
 H      0.9224731073    -6.9951929532    -3.6375177565
 F      1.6014934571    -7.3003370865    -4.1729684288
 H      1.4469247824    -6.9408489615    -5.8220444459
 F      1.2064615491    -6.6744397747    -6.6659002265
          4
Energy: -6.326664388306995 Kcal/mole
 H      0.7295957848    -7.4527589094    -3.7815818788
 F      1.5494112207    -7.3035016392    -4.1643532444
 H      1.5342769742    -6.8728682761    -5.8098340895
 F      1.3396242747    -6.6619341318    -6.6807566540
          4
Energy: -6.326109974053452 Kcal/mole
 H      0.8484014534    -7.1837256989    -3.7234995503
 F      1.5935490144    -7.4364702546    -4.1944181227
 H      1.5207418435    -7.0306764398    -5.8390053543
 F      1.3159195493    -6.7316827642    -6.6813470960
          4
Energy: -6.322570006838873 Kcal/mole
 H      1.3910382326    -6.7075651227    -3.6068855144
 F      1.5391714301    -7.4072823175    -4.1807682578
 H      1.5026541506    -7.0557069064    -5.8507282547
 F      1.4326458111    -6.7022835235    -6.6939836993
          4
Energy: -6.323796393842144 Kcal/mole
 H      1.8165066085    -6.6975485513    -3.6788545552
 F      1.5755526602    -7.4122725993    -4.2003904888
 H      1.4599131628    -7.0978020627    -5.8604656551
 F      1.4682008329    -6.7504235055    -6.7090812646
          4
Energy: -6.3261820016723505 Kcal/mole
 H      0.9883694584    -6.9775807024    -3.6671443790
 F      1.6712796761    -7.3329995368    -4.1653412144
 H      1.6251261467    -7.0313236729    -5.8355937111
 F      1.4561319597    -6.7860337346    -6.7028669154
          4
Energy: -6.3272163268947565 Kcal/mole
 H      1.2155564937    -6.6636365438    -3.6659982402
 F      1.5755338729    -7.3454213473    -4.1624604927
 H      1.5664395119    -7.1080791052    -5.8446704807
 F      1.4729609985    -6.8202391736    -6.7102910334
          4
Energy: -6.327336282317049 Kcal/mole
 H      1.8908346604    -6.6431599219    -3.6829039604
 F      1.4175712996    -7.2739784039    -4.1508557037
 H      1.4032405195    -7.0534653227    -5.8343031289
 F      1.5000131547    -6.7751011660    -6.7026564288
          4
Energy: -6.326751013393903 Kcal/mole
 H      2.3046260295    -7.2299593091    -3.7933538015
 F      1.4642313484    -7.2378052512    -4.1601837637
 H      1.4093790187    -6.9939946581    -5.8338024492
 F      1.5587459887    -6.8623347792    -6.7289248903
          4
Energy: -6.32588170419757 Kcal/mole
 H      2.3115899937    -7.2183179614    -3.8310723566
 F      1.4746797734    -7.3264382061    -4.1899320729
 H      1.4157181940    -7.0347268535    -5.8607105615
 F      1.5742556863    -6.8522501506    -6.7452766226
          4
Energy: -6.32778238652395 Kcal/mole
 H      2.1627166617    -6.9835012186    -3.7473640833
 F      1.4583379607    -7.3608133351    -4.1972254090
 H      1.4476435995    -7.0820932032    -5.8681730958
 F      1.5988844308    -6.8413948447    -6.7399984861
          4
Energy: -6.327310882703898 Kcal/mole
 H      2.2607563423    -7.4622797489    -3.8369594559
 F      1.4322300693    -7.3468454460    -4.2126030857
 H      1.4528637742    -6.9977799740    -5.8752936048
 F      1.6562596553    -6.8150238396    -6.7505760226
          4
Energy: -6.32370820306636 Kcal/mole
 H      2.1848796108    -7.1994755393    -3.7760232481
 F      1.4061452033    -7.3727380509    -4.2281756833
 H      1.4347632935    -7.0704896679    -5.8872852141
 F      1.6323642393    -6.8573805140    -6.7570135365
          4
Energy: -6.32695480283337 Kcal/mole
 H      2.1208155621    -7.2379988487    -3.7612850439
 F      1.3203958257    -7.2668723008    -4.2078089173
 H      1.4418757522    -7.0200391290    -5.8795765146
 F      1.7033591079    -6.8724328185    -6.7460220304
          4
Energy: -6.327038799797151 Kcal/mole
 H      2.0901665314    -7.0792360948    -3.7286802491
 F      1.3437386986    -7.2996548197    -4.2136030018
 H      1.4570302977    -7.0499946029    -5.8827275644
 F      1.6898024165    -6.8553554416    -6.7480724307
          4
Energy: -6.327408718273716 Kcal/mole
 H      2.2553504237    -7.0433692731    -3.7489838765
 F      1.4677774711    -7.2170159555    -4.1854064629
 H      1.5116917931    -7.0177117636    -5.8685672589
 F      1.7112207653    -6.8552564572    -6.7487294387
          4
Energy: -6.326680772404302 Kcal/mole
 H      2.1741092589    -6.7409685472    -3.7399543196
 F      1.5394378391    -7.2328903285    -4.1827795108
 H      1.5515143541    -7.0594507050    -5.8695547819
 F      1.6853580949    -6.8500923903    -6.7522460921
          4
Energy: -6.326960319879163 Kcal/mole
 H      2.1184520048    -6.6017465970    -3.7709634398
 F      1.5370092692    -7.1873907251    -4.1707562617
 H      1.5668907871    -7.1253228982    -5.8645995148
 F      1.7113010597    -6.9541840167    -6.7538386032
          4
Energy: -6.327141646112352 Kcal/mole
 H      1.8682633101    -6.4372379233    -3.7661908115
 F      1.5502812013    -7.1961175301    -4.1710094386
 H      1.6065300222    -7.1466811584    -5.8634739242
 F      1.7091982899    -6.9530510103    -6.7538983132
          4
Energy: -6.327635525657797 Kcal/mole
 H      2.1997166063    -6.7313303225    -3.7399787520
 F      1.5055823191    -7.1549355592    -4.1638008783
 H      1.5419901200    -7.0851892870    -5.8580765815
 F      1.7228361060    -6.9532969846    -6.7473392817
          4
Energy: -6.327727798553326 Kcal/mole
 H      1.9778792722    -6.4928539712    -3.7468565132
 F      1.5173502770    -7.1675861786    -4.1634360290
 H      1.5815426760    -7.1207576732    -5.8558008730
 F      1.7173650658    -6.9449336103    -6.7454790043
          4
Energy: -6.327204065620151 Kcal/mole
 H      1.8578526339    -6.4155421572    -3.7442056474
 F      1.5444970437    -7.1670966794    -4.1659438058
 H      1.6101743665    -7.1214865944    -5.8624270023
 F      1.7243690830    -6.9354902654    -6.7530750430
          4
Energy: -6.32652988579531 Kcal/mole
 H      2.1503033484    -6.6247167794    -3.7590844167
 F      1.5012014659    -7.1208926250    -4.1754559771
 H      1.5359334040    -7.0681248345    -5.8638721787
 F      1.6992588464    -6.9190152594    -6.7538048359
          4
Energy: -6.327279897604342 Kcal/mole
 H      2.2250619894    -6.7309194454    -3.7705682584
 F      1.4972356927    -7.1152588190    -4.1748467859
 H      1.5141874368    -7.0595442903    -5.8738366068
 F      1.6886287861    -6.9328573748    -6.7651332135
          4
Energy: -6.327349063539202 Kcal/mole
 H      2.2374092003    -6.7286060506    -3.7908133893
 F      1.5036843553    -7.1161414684    -4.1811378079
 H      1.5057499987    -7.0587572706    -5.8744346762
 F      1.6775137652    -6.9322554973    -6.7662774370
          4
Energy: -6.327456932393545 Kcal/mole
 H      2.0690486787    -6.5180231229    -3.7815804967
 F      1.5126154919    -7.1273124061    -4.1816275915
 H      1.5346914363    -7.0931785110    -5.8749372845
 F      1.6759784888    -6.9304295301    -6.7662507748
          4
Energy: -6.327884859455594 Kcal/mole
 H      2.0559868825    -6.5123565181    -3.7724203302
 F      1.5133083900    -7.1276130064    -4.1821135172
 H      1.5281535979    -7.0863212861    -5.8787236445
 F      1.6550959988    -6.9258654786    -6.7726076195
          4
Energy: -6.327740125690752 Kcal/mole
 H      1.7109645455    -6.3267085033    -3.7805247482
 F      1.5292351261    -7.1317632370    -4.1802124937
 H      1.5827416038    -7.1150235187    -5.8783641992
 F      1.6522002312    -6.9243428915    -6.7726266872
          4
Energy: -6.327713701476398 Kcal/mole
 H      2.0298440120    -6.4786017456    -3.7744502637
 F      1.5180696830    -7.1217555574    -4.1810572120
 H      1.5298749650    -7.0865994292    -5.8785309301
 F      1.6550046842    -6.9258507238    -6.7726178426
          4
Energy: -6.327636368740286 Kcal/mole
 H      2.0569604656    -6.5037595820    -3.7705778306
 F      1.5166312178    -7.1204209923    -4.1812626356
 H      1.5316188350    -7.0853693421    -5.8780685204
 F      1.6549121759    -6.9259159770    -6.7726423723
          4
Energy: -6.327865819025703 Kcal/mole
 H      2.0883048401    -6.5300682796    -3.7744797674
 F      1.5149684712    -7.1190253767    -4.1810556469
 H      1.5243137134    -7.0801986315    -5.8782008404
 F      1.6552996958    -6.9261902713    -6.7726353530
          4
Energy: -6.327892660209272 Kcal/mole
 H      2.0885618191    -6.5292872296    -3.7759773407
 F      1.5149548390    -7.1190668096    -4.1809762041
 H      1.5233635805    -7.0797727461    -5.8782672928
 F      1.6553500981    -6.9262128635    -6.7726318279
