          4
Energy: -6.2680989724048 Kcal/mole
 H      0.6314989738     3.4956831593     3.9533615402
 F     -0.0555421329     2.9854123593     4.2827355348
 H     -1.3506945520     2.9442207697     3.2432458290
 F     -1.9809645985     3.0886800894     2.5930303467
          4
Energy: -6.258182432340504 Kcal/mole
 H     -2.1677132552     3.0987481802     2.9669836865
 F     -2.0205252660     3.8813149819     3.4217516456
 H     -0.4031003015     4.4142206493     3.4777997117
 F      0.5074523945     4.5172262001     3.5120436049
          4
Energy: -6.217355584744155 Kcal/mole
 H      1.8360813584     4.5313971322     2.9148009515
 F      2.3075285016     5.2292062132     3.2776908490
 H      2.5957543773     6.5060609753     2.2291950476
 F      2.7768635084     7.0532191932     1.5159585039
          4
Energy: -6.2429312422978 Kcal/mole
 H      2.3545994878     6.5077787531     5.4841641704
 F      2.3190161186     6.7277739974     4.5946559264
 H      3.6152754992     6.1081522068     3.6953223753
 F      4.3243749604     5.7103972353     3.2712257627
          4
Energy: -6.277773182685053 Kcal/mole
 H      5.5253072859     2.3613900451     4.3826988746
 F      5.0754289947     2.8305910742     3.7358998970
 H      5.8774666626     3.0377076914     2.2574266867
 F      6.4816719329     3.1269836514     1.5734275681
          4
Energy: -6.300916378481588 Kcal/mole
 H      3.6832532396     5.0247902726     0.6451825157
 F      4.1593387972     5.7904115582     0.8126805421
 H      4.9939155960     6.4333000870    -0.5527218495
 F      5.3563690504     6.6601924402    -1.3639162487
          4
Energy: -6.266201664784035 Kcal/mole
 H      3.0972957798     2.3661841943    -1.6289807445
 F      3.9572110111     2.5758189175    -1.3892140293
 H      4.6935723969     1.5359591582    -0.2949326529
 F      4.9193163112     0.8228597763     0.2355557603
          4
Energy: -6.228355103708282 Kcal/mole
 H      6.3390858133     1.8225299893    -0.4184274931
 F      6.5731808345     1.6785626648     0.4564221686
 H      5.8488351750     2.9378767835     1.4164154441
 F      5.3490876306     3.6795943723     1.6188911472
          4
Energy: -6.271046783210409 Kcal/mole
 H      0.1495860416     3.8691290018     6.9293588372
 F     -0.5654191915     3.8711451159     6.3552051539
 H     -1.0839606586     5.2628245106     5.6012266311
 F     -1.2911216337     6.0931082952     5.2716782015
          4
Energy: -6.228892173037821 Kcal/mole
 H     -4.5450382794     6.0044779971     6.5579029790
 F     -3.6872810076     5.6805043152     6.5443931227
 H     -2.6475893592     6.1944683187     5.3623320563
 F     -2.1180471757     6.5026253912     4.6800467094
          4
Energy: -6.3133236737703555 Kcal/mole
 H     -5.0100802037     4.2072931563     4.3777080940
 F     -5.7563761684     3.6916866962     4.5121748610
 H     -5.6989805352     2.4227756282     5.6507368247
 F     -5.5260941914     1.7708018828     6.2719691061
          4
Energy: -6.304990010497477 Kcal/mole
 H     -4.4736841093     4.3875469576     2.3672472736
 F     -3.5824237894     4.1727623116     2.3875351539
 H     -3.2144508559     3.2088961830     3.7343947539
 F     -3.2654250066     2.7264164023     4.5125360632
          4
Energy: -6.293704951403299 Kcal/mole
 H     -3.1141873284     2.8546313838     3.4500485699
 F     -3.8475174671     2.3555142964     3.2176737847
 H     -5.4322521726     2.8994857347     3.5361216588
 F     -6.1895887291     3.3518155283     3.7865774393
          4
Energy: -6.278933339587411 Kcal/mole
 H     -6.3159830621     1.3284178555     4.1014789478
 F     -6.3448295200     0.9413420893     4.9322793047
 H     -5.3914276659    -0.4286634984     4.9125695043
 F     -4.8419325468    -1.1431238225     4.7437780369
          4
Energy: -6.317201779028835 Kcal/mole
 H     -4.6639818717    -4.0240373608    -0.6958839015
 F     -4.5658324592    -3.5549681800     0.0859279661
 H     -4.9304243524    -4.3872053212     1.5354174969
 F     -5.1857229734    -4.9843654612     2.1828056195
          4
Energy: -6.295442792155768 Kcal/mole
 H     -0.1550811727    -6.0120557403     0.7481661487
 F     -0.9570648030    -5.6187591118     0.5407317767
 H     -2.2079907008    -6.5803078104     1.1199302277
 F     -2.7306862375    -7.2484277906     1.4682032067
          4
Energy: -6.2641213851958355 Kcal/mole
 H     -3.3428610541    -5.6538824159     0.4497526398
 F     -2.4378574618    -5.7438827494     0.3324605345
 H     -1.3324017400    -4.6934059206     1.1299941750
 F     -0.9463412322    -4.0171189727     1.6142278464
          4
Energy: -6.270519746456785 Kcal/mole
 H     -0.9033980033    -6.5245282511    -2.6829040251
 F     -0.3285616165    -5.9708422986    -2.2313688719
 H     -0.9774922521    -5.2653907439    -0.7887924178
 F     -1.4519269047    -4.9287192523    -0.0799531785
          4
Energy: -6.239201028855973 Kcal/mole
 H     -1.7428041075    -4.0349119048    -0.2415269071
 F     -2.2210275061    -4.8153502086    -0.1857825352
 H     -2.4472704602    -5.6841033123     1.3217022239
 F     -2.5287667542    -6.0073172299     2.1759739123
          4
Energy: -6.310692419728355 Kcal/mole
 H     -0.8155638854    -0.2506601430    -0.6324080679
 F     -1.1376143682    -0.9779184993    -0.1760444303
 H     -1.5921839602    -2.1917026992    -1.2559493780
 F     -1.7691693008    -2.7348489191    -1.9732759236
          4
Energy: -6.176114957730476 Kcal/mole
 H     -1.7942394733    -1.7035924688    -0.1692949048
 F     -2.0187798936    -0.9197485412     0.2502993001
 H     -3.5933595359    -0.6017266860     0.7524327993
 F     -4.4487740895    -0.6344439975     1.0811949003
          4
Energy: -6.316032511794731 Kcal/mole
 H     -6.5370736635    -2.4450819673    -3.9785103176
 F     -6.9382868296    -2.0941907923    -3.2323251003
 H     -6.1791881725    -2.3236480415    -1.7375558002
 F     -5.6279891374    -2.5245713028    -1.0327874220
          4
Energy: -6.265921321984479 Kcal/mole
 H     -6.5952759610     0.3260011082    -3.6754756954
 F     -5.9822083734     0.4106412417    -2.9988124255
 H     -4.3505022697    -0.1602468321    -3.1569223445
 F     -3.5545746291    -0.5110423102    -3.4473198712
          4
Energy: -6.253513492884792 Kcal/mole
 H     -2.7514155161    -1.7221737584    -5.1474859067
 F     -3.0708187328    -0.9813083359    -5.5833631954
 H     -4.6109112576    -1.4193558717    -6.0929791517
 F     -5.4013466688    -1.8472836691    -6.2745794301
          4
Energy: -6.31769163797486 Kcal/mole
 H     -3.8084860763    -2.8071458346    -7.1039802991
 F     -3.9970556874    -2.5971975586    -6.2314826067
 H     -5.6311819095    -2.7974054527    -5.7876870823
 F     -6.5276867311    -2.9879797774    -5.7585403560
          4
Energy: -6.285778126625928 Kcal/mole
 H     -2.3990297796    -3.1005493793    -5.1447770185
 F     -3.2524056816    -3.1748756615    -4.8174940007
 H     -4.3943959111    -2.5940864010    -5.9539837313
 F     -4.8791398873    -2.2386549813    -6.6465014447
          4
Energy: -6.207400014111386 Kcal/mole
 H     -2.4819510293    -2.2689936903    -4.9420167719
 F     -1.8059113808    -2.6759252719    -5.4092063282
 H     -2.2332696848    -3.8814874343    -6.5799934557
 F     -2.5102997495    -4.5037841678    -7.1939072272
          4
Energy: -6.272050703406933 Kcal/mole
 H      0.4390232363    -3.3505340778    -5.0690897534
 F      0.7837203140    -3.3816988046    -4.2199126904
 H     -0.0674361480    -3.8543505175    -2.8344210486
 F     -0.6536161265    -4.1180912624    -2.1804158098
          4
Energy: -6.272662161636788 Kcal/mole
 H      0.3950286636    -7.4368608764    -3.2449959642
 F     -0.3431383809    -6.8938424249    -3.2786021517
 H     -0.3173550583    -5.3375132637    -2.5089752695
 F     -0.1007686995    -4.5903226877    -2.0235006644
          4
Energy: -6.284105066128973 Kcal/mole
 H     -1.7809765399    -5.1661687975    -3.9951251774
 F     -1.0563461165    -4.9702759196    -3.4684129886
 H     -1.1839949420    -4.9233767962    -1.7536246071
 F     -1.4567302815    -4.9605115470    -0.8789101138
          4
Energy: -6.307090036067791 Kcal/mole
 H     -3.9469366720    -6.0084119489    -4.3623242459
 F     -4.7005318868    -5.9325029040    -4.8792585445
 H     -4.8788790591    -4.3751757021    -5.5496160627
 F     -4.8008200527    -3.4860319706    -5.7598997195
          4
Energy: -6.325993528713639 Kcal/mole
 H     -5.5751097375    -5.6756306995    -5.0617449822
 F     -5.4203324115    -5.4732144428    -5.9426312623
 H     -5.1705689676    -3.8218000477    -6.2737498402
 F     -5.0727132848    -2.9100365638    -6.2729657922
          4
Energy: -6.288274470390945 Kcal/mole
 H     -5.9569410558    -4.7019042822    -3.2485897418
 F     -6.5812645807    -4.2596262062    -3.7540590681
 H     -6.2018879191    -2.7833592056    -4.5139968859
 F     -5.8040845717    -2.0191298824    -4.8279953545
          4
Energy: -6.276662225799669 Kcal/mole
 H     -6.9500381541    -5.7255537689    -3.8376926856
 F     -6.1868979473    -6.2199747379    -3.7191434121
 H     -5.4148633317    -6.4928139160    -5.1695753248
 F     -5.1096164477    -6.5998148245    -6.0276336826
          4
Energy: -6.308443030868489 Kcal/mole
 H     -7.3163248055    -2.1395855916    -2.5864713155
 F     -7.4447908141    -3.0201851514    -2.3652702759
 H     -7.3568725478    -4.1450756266    -3.6219763218
 F     -7.3220576819    -4.5989963855    -4.4179869183
          4
Energy: -6.312147344033747 Kcal/mole
 H     -7.0566745515    -5.5883833333    -3.8544720714
 F     -6.2360853162    -5.8667304403    -3.5543967562
 H     -6.2598061495    -6.1562205382    -1.8661147413
 F     -6.4738900472    -6.2581933620    -0.9803051523
          4
Energy: -6.263447658395336 Kcal/mole
 H     -7.0058710163    -5.1644579979    -2.4129324651
 F     -6.8922871096    -6.0544180903    -2.6025603380
 H     -5.2529002098    -6.6020453495    -2.8822151914
 F     -4.3556027829    -6.7411480579    -3.0102650411
          4
Energy: -6.288915685408426 Kcal/mole
 H     -6.2059137362    -6.8677731433    -4.0947739343
 F     -5.6643010608    -7.4896333350    -3.6937320265
 H     -4.0174929214    -7.1338272764    -3.6186691489
 F     -3.1403279321    -6.8678501601    -3.6456275490
          4
Energy: -6.306666420024669 Kcal/mole
 H     -5.1992349000    -5.2405891045    -5.3515484089
 F     -4.7245916336    -4.5324792644    -5.6894584917
 H     -3.2767587527    -4.2949414762    -4.9037944929
 F     -2.5324058613    -4.3065760049    -4.3683578385
          4
Energy: -6.2849095291823005 Kcal/mole
 H     -6.0622087630    -2.3276516122    -5.5906015064
 F     -5.2513928376    -2.7323776424    -5.4503753475
 H     -5.2759286955    -3.5040718058    -3.9475123284
 F     -5.5198868451    -3.8891072272    -3.1518232274
          4
Energy: -6.313261180250777 Kcal/mole
 H     -4.8735493716    -2.4694202933    -5.2320793299
 F     -5.3542254652    -1.8208637341    -5.6670665509
 H     -6.1861154406    -0.8568125775    -4.5494465608
 F     -6.5591726891    -0.4796070377    -3.8014938416
          4
Energy: -6.283903666074025 Kcal/mole
 H     -4.6301161730    -3.6675768383    -5.6262959924
 F     -5.5220203012    -3.4575691403    -5.5903405632
 H     -5.8478838499    -1.9221201266    -6.1162767201
 F     -5.8727656886    -1.0509606538    -6.4014978045
          4
Energy: -6.320493377474122 Kcal/mole
 H     -6.9154770460    -4.1822234167    -5.5332372737
 F     -7.2270757143    -4.0970405365    -6.3914558629
 H     -6.9801543002    -2.6088111339    -7.1511296367
 F     -6.7478156952    -1.7641551096    -7.4221720195
          4
Energy: -6.3119287951655 Kcal/mole
 H     -5.7947194839    -4.3669304289    -6.0719850790
 F     -6.6478554329    -4.1065262408    -5.8592934917
 H     -7.0792677012    -2.6017070871    -6.5737723324
 F     -7.1003851509    -1.8113342874    -7.0382654872
          4
Energy: -6.314017058028583 Kcal/mole
 H     -7.4009784035    -4.4977016761    -6.6520169276
 F     -6.9405366503    -4.1611355998    -5.9339600579
 H     -6.9568527477    -2.4639172022    -5.8285831261
 F     -7.0257398623    -1.5564281842    -5.9408651268
          4
Energy: -6.280962952858147 Kcal/mole
 H     -6.5490868288    -4.7835643181    -6.1349610700
 F     -5.9354949041    -4.4424090096    -5.5450398843
 H     -6.2340795189    -2.9557588268    -4.7663869975
 F     -6.4669367512    -2.1527201015    -4.3898298107
          4
Energy: -6.3147012099543645 Kcal/mole
 H     -5.4054655945    -4.3051200065    -4.7459769840
 F     -6.2839838388    -4.4470127337    -4.9672486458
 H     -7.0582857073    -3.0471584326    -5.4642779830
 F     -7.3167153331    -2.2072037459    -5.7261543906
          4
Energy: -6.30063264850105 Kcal/mole
 H     -4.6007992610    -4.0625537526    -5.2809448477
 F     -4.2812628821    -3.2170082255    -5.1265483965
 H     -5.2572818684    -1.8415221448    -5.2905247520
 F     -5.8829923672    -1.1805433004    -5.4022491408
          4
Energy: -6.321907153329619 Kcal/mole
 H     -2.8636257819    -2.7811603253    -4.1484248345
 F     -3.2343834373    -3.1385447244    -4.9071765410
 H     -3.7890862857    -1.9593300057    -5.9869551042
 F     -4.0103675531    -1.2026325903    -6.4552847125
          4
Energy: -6.291595563864064 Kcal/mole
 H     -4.3144616355    -4.4940717518    -6.6881565390
 F     -4.3091924233    -3.8034893926    -6.0848678514
 H     -3.6366104228    -2.3564413067    -6.7027165383
 F     -3.3109294484    -1.6913714792    -7.2435520285
          4
Energy: -6.322427902536106 Kcal/mole
 H     -3.8427619270    -3.9115501321    -6.3597165211
 F     -4.0845403133    -3.4446640837    -5.6084178922
 H     -3.8389165659    -1.7837648981    -5.7168254806
 F     -3.6604910780    -0.9145586277    -5.9481992147
          4
Energy: -6.324323902214189 Kcal/mole
 H     -4.2220433880    -3.3403183470    -5.3136232798
 F     -4.0953710289    -3.4073965284    -6.2193515122
 H     -3.1832777739    -2.1355422782    -6.8543390565
 F     -2.6768545094    -1.3904274400    -7.0253020791
          4
Energy: -6.276788768218182 Kcal/mole
 H     -3.8103956407    -4.6669182822    -6.0324285168
 F     -4.0796807449    -3.8300617090    -6.2932840488
 H     -2.9679328821    -2.7315004581    -6.9811514704
 F     -2.2741560818    -2.2979945859    -7.3954405121
          4
Energy: -6.296181883104964 Kcal/mole
 H     -4.2514751716    -3.5439515399    -5.1278751286
 F     -4.4427073377    -3.4680167260    -6.0214931469
 H     -3.1191824568    -2.8342379449    -6.9435881694
 F     -2.3081903365    -2.5160644755    -7.2298510279
          4
Energy: -6.321093494689649 Kcal/mole
 H     -5.0262435658    -4.4206144421    -6.7246259745
 F     -4.6640010182    -3.6843038024    -6.3153388155
 H     -3.2160219932    -3.0748201703    -6.9389984314
 F     -2.4395929466    -2.8566965824    -7.3754260154
          4
Energy: -6.316110252129988 Kcal/mole
 H     -5.7220017739    -3.7180438472    -6.9327355382
 F     -5.0489488542    -3.4808872468    -6.3568488184
 H     -3.4375302990    -3.6099930374    -6.9211076300
 F     -2.6371264268    -3.7255941855    -7.3534026867
          4
Energy: -6.318089166706898 Kcal/mole
 H     -4.8676629670    -3.7349721865    -5.2078653723
 F     -4.9954674328    -3.8146456937    -6.1124134091
 H     -3.5766688613    -4.0826957522    -6.9914243902
 F     -2.7320074724    -4.2583838289    -7.3021812692
          4
Energy: -6.321768587084819 Kcal/mole
 H     -5.2812138849    -3.8305415565    -5.3993358946
 F     -5.2474185544    -4.1751642439    -6.2484425304
 H     -3.7158293817    -4.0447783394    -6.9379616961
 F     -2.8336167809    -3.8845123974    -7.1300677992
          4
Energy: -6.324399925188288 Kcal/mole
 H     -5.9840738808    -4.4843997064    -7.0087947353
 F     -5.3673708901    -4.5172608141    -6.3309403492
 H     -3.8243047623    -3.9650166471    -6.7351181246
 F     -3.0604833349    -3.6198986543    -7.1070850561
          4
Energy: -6.323317481163315 Kcal/mole
 H     -6.0059562879    -4.5126190447    -6.6911809931
 F     -5.2960190833    -4.4703913264    -6.1123070990
 H     -3.8555168004    -3.8964374393    -6.8262591942
 F     -3.1839696946    -3.5864114012    -7.3682899502
          4
Energy: -6.326580007467783 Kcal/mole
 H     -5.9990523585    -3.8542424761    -6.0943907163
 F     -5.4008474228    -4.5214764440    -6.2889124041
 H     -3.9276807343    -4.0221459609    -6.9628720340
 F     -3.1972589380    -3.5966709570    -7.3183210747
          4
Energy: -6.325582962530007 Kcal/mole
 H     -6.1798248232    -3.9916959355    -6.7919816423
 F     -5.4852385214    -4.5000014752    -6.4756521502
 H     -3.9334350659    -4.0792672350    -7.0191564369
 F     -3.1836359424    -3.7122785889    -7.3986424156
          4
Energy: -6.324067032590847 Kcal/mole
 H     -5.9077711202    -3.8434946214    -5.9406778257
 F     -5.4484719534    -4.5159589778    -6.3622522139
 H     -3.9659953160    -4.0252344176    -7.0087960360
 F     -3.2078630825    -3.6029004449    -7.3050367015
          4
Energy: -6.326664678069392 Kcal/mole
 H     -6.1297178719    -3.8794381923    -6.4304617235
 F     -5.4438744365    -4.4791565843    -6.3263193574
 H     -3.9579521794    -3.9817798400    -6.9598892157
 F     -3.2492363790    -3.5587197614    -7.3594278048
          4
Energy: -6.327366418295526 Kcal/mole
 H     -6.1295378358    -3.8839458746    -6.4545652719
 F     -5.4438839870    -4.4789174621    -6.3250407199
 H     -3.9585868118    -3.9815094259    -6.9607301745
 F     -3.2492027132    -3.5587341062    -7.3593831939
