          4
Energy: -6.316338503432917 Kcal/mole
 H     -2.2134412943    -3.8374839533    -6.4955879941
 F     -1.9101858086    -4.2994252595    -7.2273907954
 H     -1.4498318715    -5.9340719069    -7.0030120438
 F     -1.2617217372    -6.7896309192    -6.7318619858
          4
Energy: -6.316980928355463 Kcal/mole
 H     -2.6868515225    -3.8237919016    -6.4123903322
 F     -1.7918605504    -4.0057368624    -6.3300727098
 H     -1.3650239921    -5.6477645127    -6.1383083155
 F     -1.3277188937    -6.5621389250    -6.0798552254
          4
Energy: -6.320844042707563 Kcal/mole
 H     -2.0738816749    -3.6136887545    -6.6302259573
 F     -1.7318366084    -3.7462487352    -5.7897962911
 H     -1.3965630394    -5.3480804700    -5.3562023809
 F     -1.2687456790    -6.2550287910    -5.3115205564
          4
Energy: -6.327461997944624 Kcal/mole
 H     -2.0233718672    -3.5523515717    -6.1441703340
 F     -1.2326484572    -3.7200782118    -5.7111423175
 H     -0.5398600178    -5.2413421645    -6.0178074824
 F     -0.3147106776    -6.0882878015    -6.2877701882
          4
Energy: -6.323241069885626 Kcal/mole
 H     -1.4847060921    -3.3870485216    -5.1836966291
 F     -1.3708276048    -3.6653781019    -6.0499837263
 H     -0.6370606245    -5.1742596004    -6.2008438169
 F     -0.2257929184    -5.9854847919    -6.0839611302
          4
Energy: -6.323821177521268 Kcal/mole
 H     -0.1876335024    -2.8413311994    -6.3005031257
 F     -0.5393433357    -3.3807739990    -6.9533359214
 H     -0.1097859847    -5.0003110265    -6.7642049986
 F      0.2259686447    -5.8156628363    -6.5124923548
          4
Energy: -6.322324872433171 Kcal/mole
 H     -0.9832519220    -3.2066834727    -6.0667622153
 F     -0.9294014176    -3.8797914396    -6.6871772281
 H      0.1052947385    -5.1686804609    -6.2872044478
 F      0.7095637349    -5.7450791991    -5.9083740443
          4
Energy: -6.324222862808085 Kcal/mole
 H     -0.4772668873    -3.5834331085    -6.9036535427
 F     -0.5691733030    -4.4027711153    -7.3050603705
 H      0.7426135440    -5.4422755602    -7.1177548871
 F      1.5217822593    -5.8810227455    -6.9145652699
          4
Energy: -6.321033198510122 Kcal/mole
 H     -1.2561971443    -4.3743742889    -6.5277726878
 F     -0.5107762704    -4.1327464523    -7.0040632603
 H      0.9258624634    -4.9105659935    -6.4976873930
 F      1.5898690931    -5.4016116460    -6.0991169939
          4
Energy: -6.3258561621829585 Kcal/mole
 H     -1.1001563684    -3.3974911105    -6.1820049468
 F     -0.4682702332    -3.7158181573    -6.7653374450
 H      0.5098683119    -4.9807292348    -6.1714315713
 F      0.9363025130    -5.6369188920    -5.6934587627
          4
Energy: -6.315564087175062 Kcal/mole
 H     -0.2885877371    -3.2219567345    -6.7892573846
 F     -0.8262906210    -3.9415462553    -6.9735276485
 H     -0.0025081682    -5.3984125398    -6.8530680675
 F      0.5867505788    -6.0885424860    -6.7212204792
          4
Energy: -6.322697737622036 Kcal/mole
 H     -1.0587512178    -3.5303331262    -6.8352413281
 F     -1.0327269140    -4.2449885691    -7.4092442320
 H      0.1152543933    -5.4248216493    -6.9969314186
 F      0.7682290997    -5.9335543039    -6.6023378063
          4
Energy: -6.301963607331572 Kcal/mole
 H     -1.5354208004    -4.0008946207    -6.6321700047
 F     -1.7102321029    -4.8773969705    -6.4270514062
 H     -0.4666618738    -6.0141676364    -6.4266131877
 F      0.3147937222    -6.4934681963    -6.4486840938
          4
Energy: -6.294099428509298 Kcal/mole
 H     -2.2464775269    -5.4606107756    -6.9041293927
 F     -1.6629348005    -4.9576394356    -6.4067495402
 H     -0.1123229110    -5.5294659911    -6.1824087781
 F      0.6863651654    -5.9747122010    -6.1135453685
          4
Energy: -6.323256083948877 Kcal/mole
 H     -1.9372980891    -4.7490304244    -7.4660014515
 F     -1.6305480321    -4.8535289261    -6.6081707773
 H     -0.1108019482    -5.5777890739    -6.4327094458
 F      0.7028773072    -5.9951793717    -6.5005357573
          4
Energy: -6.321739208601002 Kcal/mole
 H     -2.3425978240    -5.4377625489    -6.0740021996
 F     -1.6780554288    -5.0042014332    -6.5336729122
 H     -0.1047767708    -5.5737986582    -6.2294548371
 F      0.6507642655    -5.9918092538    -5.9207253692
          4
Energy: -6.298146770297251 Kcal/mole
 H     -1.6695618110    -4.4652455824    -6.4485222545
 F     -1.4220839555    -5.2224072394    -6.9027798204
 H      0.0702045916    -5.9633755730    -6.4187863771
 F      0.8761799851    -6.1889130281    -6.0440524428
          4
Energy: -6.31756991466608 Kcal/mole
 H     -1.6654131327    -5.5071190057    -7.3694585568
 F     -1.5463013534    -5.5211273069    -6.4603352695
 H      0.0871896030    -5.3374582533    -6.0634541066
 F      0.9992243706    -5.2421948591    -6.0609107797
          4
Energy: -6.317958985998928 Kcal/mole
 H     -1.9194623709    -5.7652452674    -6.2585244333
 F     -1.3557459834    -6.2493765713    -5.7211886770
 H      0.2634106828    -5.7954146895    -5.7603215642
 F      1.1050258420    -5.4528768309    -5.8837749533
          4
Energy: -6.302323907767459 Kcal/mole
 H     -1.5022294152    -6.0164673145    -4.4053209526
 F     -1.2859642867    -6.3252783093    -5.2412361180
 H      0.1754003978    -5.6309210054    -5.7774351359
 F      0.9396914081    -5.1427607453    -5.9132578585
          4
Energy: -6.308582939185499 Kcal/mole
 H     -1.3431935967    -6.7869810212    -4.8278137403
 F     -0.5547666597    -7.2549096644    -4.8455549318
 H      0.7820194186    -6.4767241112    -5.4887636588
 F      1.4351385233    -5.9455680156    -5.8523535890
          4
Energy: -6.320019000917455 Kcal/mole
 H     -0.6568646068    -6.6865693225    -4.2569302208
 F     -0.1597943913    -7.4076947527    -4.5285702673
 H      1.1669908915    -7.0143308744    -5.5022916226
 F      1.8153846641    -6.5939874443    -5.9960384366
          4
Energy: -6.327317575355323 Kcal/mole
 H     -0.6215949413    -7.1882506422    -4.6783313831
 F      0.1292174576    -7.3035048398    -4.1646328220
 H      1.5923593653    -6.9783339051    -4.9626478614
 F      2.2765751418    -6.7612553748    -5.5332744319
          4
Energy: -6.321986434041435 Kcal/mole
 H     -0.3700570147    -6.5476724031    -4.0033538063
 F      0.1741659165    -7.2417481278    -4.2542906300
 H      1.3566687055    -6.8343938800    -5.3897486102
 F      1.9330506511    -6.4263798994    -5.9747250579
          4
Energy: -6.320211800575237 Kcal/mole
 H      1.3981846590    -7.3967008877    -3.6213413093
 F      0.6636927626    -7.2080082813    -4.1369048401
 H      1.0500197627    -6.8454116993    -5.7362124480
 F      1.4623755500    -6.6835948347    -6.5391240291
          4
Energy: -6.319435598479572 Kcal/mole
 H      0.8846697942    -6.1539852694    -4.0289097565
 F      0.8393393554    -7.0451278463    -4.2403312763
 H      1.4614407734    -7.4114580537    -5.7785020719
 F      1.8572016006    -7.3966688729    -6.6055713845
          4
Energy: -6.3248257065646385 Kcal/mole
 H      0.0775832839    -6.2541835962    -4.2538141264
 F      0.9855393604    -6.3390034013    -4.3503043529
 H      1.4499935547    -7.0277657210    -5.8239838027
 F      1.5297862578    -7.4155629103    -6.6511086206
          4
Energy: -6.320784790001653 Kcal/mole
 H      1.5615153674    -5.9987274962    -4.1260881717
 F      0.9344487350    -5.7932318123    -4.7628361300
 H      1.0373240885    -6.6518164716    -6.2364654382
 F      1.2515280179    -7.1777699999    -6.9564505511
          4
Energy: -6.3234572544454295 Kcal/mole
 H      0.3969366923    -5.2916072274    -4.6386897579
 F      0.4012052611    -6.2085894142    -4.6424908589
 H      0.9186273845    -6.9592342939    -6.0627956091
 F      1.2243411338    -7.2184198705    -6.8875688751
          4
Energy: -6.322584965918395 Kcal/mole
 H      0.4700582060    -6.0107711606    -4.0374859227
 F      0.6690254868    -6.8644178754    -4.3069080960
 H      0.9417121800    -7.0648515228    -5.9626536916
 F      1.0758795847    -7.0178032936    -6.8685645988
          4
Energy: -6.3272983263757965 Kcal/mole
 H      0.1850590398    -6.6857004629    -3.9239132917
 F      0.9735078337    -7.0496406766    -4.2185062655
 H      1.0844080590    -7.2475805931    -5.8997051585
 F      0.9761645176    -7.2711436025    -6.8099892462
          4
Energy: -6.322972508507576 Kcal/mole
 H      1.6024373899    -7.3467171674    -3.6462736019
 F      0.7740835470    -7.4151019261    -4.0336267169
 H      0.7679878169    -7.4582877194    -5.7229830573
 F      0.9181394746    -7.4665453207    -6.6275687590
          4
Energy: -6.319197891648855 Kcal/mole
 H      0.1150866844    -7.1448166675    -3.6848093190
 F      0.9277391330    -7.4080286113    -4.0182826621
 H      0.9861198056    -7.3399944774    -5.7169214398
 F      0.8448133897    -7.2565042109    -6.6191136989
          4
Energy: -6.326451135241314 Kcal/mole
 H      0.6724511240    -7.2039120355    -3.5469873250
 F      1.4218822578    -7.2384631789    -4.0742900788
 H      1.1479453755    -6.9531555569    -5.7148509378
 F      0.8199723856    -6.7786078493    -6.5532159035
          4
Energy: -6.318119181351506 Kcal/mole
 H      0.6427805719    -6.6380072061    -3.5374451509
 F      1.0749139667    -7.2917421387    -4.0136597736
 H      0.7378715626    -7.2473587695    -5.6891734014
 F      0.4295660856    -7.0905293655    -6.5384326497
          4
Energy: -6.324417746637096 Kcal/mole
 H      0.6938283979    -6.5312225749    -3.5458998447
 F      1.2537350604    -7.0070971871    -4.0944769885
 H      1.0061828696    -6.7872718746    -5.7476058845
 F      0.7288345977    -6.5618648761    -6.5920930787
          4
Energy: -6.318097279781966 Kcal/mole
 H      1.9736685190    -6.4519660822    -3.7646230633
 F      1.3148610237    -7.0214877509    -4.0518629510
 H      1.1198526170    -6.9898884061    -5.7325816293
 F      1.1840360623    -6.8159245884    -6.6306384624
          4
Energy: -6.316494335126379 Kcal/mole
 H      2.0058008610    -6.5807232004    -3.5631010939
 F      1.4698916010    -7.1632983481    -4.0260227528
 H      1.2192197220    -6.8982170877    -5.6897826162
 F      1.1758829326    -6.5996132968    -6.5557195069
          4
Energy: -6.32071487990828 Kcal/mole
 H      1.2867034546    -6.5013924218    -3.4026971456
 F      1.5991297379    -7.1779363168    -3.9370820028
 H      1.2390905658    -7.0398775063    -5.6051304910
 F      0.9574236106    -6.7873726599    -6.4404711574
          4
Energy: -6.318123455699094 Kcal/mole
 H      1.4444572949    -6.2051263665    -3.3954680362
 F      1.6794590122    -6.9200939126    -3.9193808161
 H      1.5516122638    -6.7061046759    -5.6095511543
 F      1.4190473493    -6.3947595869    -6.4618303216
          4
Energy: -6.307772986316309 Kcal/mole
 H      1.5442408837    -6.6227057719    -3.3958270579
 F      1.9091280832    -7.1939677803    -4.0134078619
 H      1.3960493711    -6.8092013605    -5.5833742146
 F      0.9729444727    -6.4495304246    -6.3131057151
          4
Energy: -6.318372714785198 Kcal/mole
 H      2.8711571007    -6.9454580419    -3.9573541558
 F      2.0917053284    -7.3977191231    -4.1270711234
 H      1.2414075309    -6.7612210315    -5.4692113196
 F      0.9494081730    -6.2734569495    -6.1887330881
          4
Energy: -6.323009327429304 Kcal/mole
 H      3.2360351754    -6.7314197313    -4.0865143096
 F      2.4366940643    -7.1570013318    -4.2308163868
 H      1.3981644112    -6.4624425233    -5.3924453327
 F      0.9770766860    -5.9774124118    -6.0469068814
          4
Energy: -6.318911751496842 Kcal/mole
 H      3.3587776126    -6.6121245764    -4.3129805019
 F      2.4747293790    -6.7942963272    -4.1512363402
 H      1.4167810550    -6.5667011435    -5.4444460821
 F      0.9579036838    -6.3888603721    -6.2181987675
          4
Energy: -6.3244219327999645 Kcal/mole
 H      3.5415550291    -6.9823705663    -4.6545281772
 F      2.7044485385    -6.8788924132    -4.2947588134
 H      1.5059343907    -6.5900805554    -5.4480821663
 F      0.9868956685    -6.4562357753    -6.1921072867
          4
Energy: -6.323871016592193 Kcal/mole
 H      3.2122261720    -5.5650711858    -4.3806894264
 F      2.6795720693    -6.3082876140    -4.3114222064
 H      1.5866122744    -6.5278621163    -5.5981650554
 F      1.0631547772    -6.5043906840    -6.3507142833
          4
Energy: -6.324647106788234 Kcal/mole
 H      3.1002453836    -5.4526968044    -4.3951823421
 F      2.7939503189    -6.3159828043    -4.3526427625
 H      1.7700014151    -6.7984496381    -5.6023305991
 F      1.2307929247    -6.8921628839    -6.3381030037
          4
Energy: -6.323155343671431 Kcal/mole
 H      2.9747614064    -6.9270256640    -3.8414960610
 F      2.4775747882    -6.2319068365    -4.1739179049
 H      1.9106040348    -6.4173141910    -5.7633918468
 F      1.6853676719    -6.7010925811    -6.6057857013
          4
Energy: -6.3277518666664605 Kcal/mole
 H      2.3076827675    -7.1211135164    -3.7856623091
 F      2.6288958532    -6.4474931250    -4.3185288232
 H      2.1240637060    -6.5037850661    -5.9333949257
 F      1.7600192455    -6.6843468564    -6.7554399796
          4
Energy: -6.322100163538096 Kcal/mole
 H      1.8520437647    -6.7256518458    -3.5841711997
 F      2.4192279341    -6.4230274330    -4.2380898359
 H      1.8296115746    -6.5567575960    -5.8401339844
 F      1.3580704935    -6.6920334679    -6.6148845554
          4
Energy: -6.318370282069566 Kcal/mole
 H      1.9743622560    -7.0008832132    -3.7133448019
 F      2.3926967050    -6.4006910136    -4.2662051932
 H      1.8694170265    -6.4875465005    -5.8629450213
 F      1.4961881239    -6.6608683621    -6.6824257828
          4
Energy: -6.327385542775346 Kcal/mole
 H      1.4206519165    -6.6451537941    -3.6830874554
 F      2.1444946118    -6.5144131259    -4.2306709013
 H      1.8609617291    -6.7617108372    -5.8832470446
 F      1.5345475896    -6.9265410109    -6.7241833224
          4
Energy: -6.327374213534313 Kcal/mole
 H      1.7895118195    -6.3463430092    -3.7051802958
 F      2.4508076296    -6.6022277911    -4.2866438200
 H      1.9709098997    -6.7711677304    -5.9065544697
 F      1.5436894173    -6.8202667004    -6.7164686322
          4
Energy: -6.324555479923333 Kcal/mole
 H      3.1698691809    -6.1194199021    -4.3629262643
 F      2.4370882236    -6.6677883096    -4.3062415368
 H      1.6511504317    -6.9065289975    -5.7971186363
 F      1.3706727694    -6.9002535914    -6.6701489337
          4
Energy: -6.322420626616861 Kcal/mole
 H      3.0554160005    -6.9682008070    -4.1578313184
 F      2.2751249241    -6.5041155383    -4.2869037768
 H      1.5934730481    -6.5748949365    -5.8348778382
 F      1.3794025159    -6.7272919273    -6.7134209302
          4
Energy: -6.327136488082829 Kcal/mole
 H      2.1842171818    -7.4647632338    -3.8873191592
 F      2.1676287535    -6.6132278243    -4.2271739378
 H      1.6807656078    -6.4715747928    -5.8484193087
 F      1.3976840336    -6.5805015474    -6.7138029141
          4
Energy: -6.324179563928226 Kcal/mole
 H      1.7487258109    -6.8574809143    -3.6883863536
 F      2.3961481731    -6.6346432001    -4.2983672041
 H      1.7998667453    -6.4244132064    -5.8722488512
 F      1.3142566767    -6.3729254898    -6.6484066163
          4
Energy: -6.323419098467184 Kcal/mole
 H      1.9279926168    -7.1439422077    -3.8041842492
 F      2.4938483206    -6.6418350430    -4.3224358462
 H      1.9469952704    -6.4373302746    -5.9143064556
 F      1.4908665759    -6.4557931578    -6.7096018322
          4
Energy: -6.326501121711658 Kcal/mole
 H      2.2714477345    -5.9731457465    -3.7495853671
 F      2.3663349901    -6.7311660517    -4.2568236008
 H      1.7517758960    -6.6481249677    -5.8410245401
 F      1.3816486775    -6.4351321786    -6.6525224846
          4
Energy: -6.3263622829393285 Kcal/mole
 H      2.6851344499    -6.0228196362    -4.0310924246
 F      2.3057422264    -6.8134417961    -4.2991728995
 H      1.6386266443    -6.7694410510    -5.8495495020
 F      1.3405107455    -6.5621982053    -6.6916102562
          4
Energy: -6.327621549672472 Kcal/mole
 H      2.9537772320    -6.0780865360    -4.0782394592
 F      2.2954581922    -6.6943890136    -4.2446014075
 H      1.6614657102    -6.6684210571    -5.8182914602
 F      1.4455781102    -6.5187552692    -6.6968594406
          4
Energy: -6.327680811206619 Kcal/mole
 H      2.8068784093    -5.9661003420    -4.0121243370
 F      2.3155081555    -6.7043256775    -4.2455073432
 H      1.7029907724    -6.7044017920    -5.8272319246
 F      1.4524884851    -6.5451069815    -6.6948509466
          4
Energy: -6.327277627391993 Kcal/mole
 H      1.9062852113    -5.9142708480    -3.7418233082
 F      2.2161606279    -6.6476798932    -4.1967709959
 H      1.7712471830    -6.6830142993    -5.8310096881
 F      1.4375218888    -6.5347840187    -6.6721661611
          4
Energy: -6.3255880742427735 Kcal/mole
 H      2.1380674463    -5.8593272412    -3.7515826448
 F      2.2065813393    -6.6633849274    -4.1871123036
 H      1.7137503385    -6.6765490937    -5.8121379874
 F      1.4150151794    -6.5246761831    -6.6657075064
          4
Energy: -6.325893834043825 Kcal/mole
 H      1.9744085099    -6.0540685748    -3.7060655040
 F      2.2440483979    -6.7644896491    -4.2193736259
 H      1.8326969351    -6.7046520917    -5.8661470014
 F      1.5336190232    -6.5278979292    -6.7147926098
          4
Energy: -6.325144433583716 Kcal/mole
 H      2.9006026895    -6.2958137339    -4.0157057502
 F      2.1682504559    -6.8105120235    -4.2147908489
 H      1.6512450226    -6.7545763036    -5.8248811954
 F      1.4904546402    -6.6156481900    -6.7169206745
          4
Energy: -6.326917830449361 Kcal/mole
 H      2.9456676229    -6.2281054516    -4.0460184173
 F      2.2464293867    -6.7957819458    -4.2183503262
 H      1.6811419189    -6.7468163050    -5.8224340770
 F      1.5088284727    -6.5899507007    -6.7093333151
          4
Energy: -6.326852277909381 Kcal/mole
 H      3.0849919601    -7.0246369123    -4.1335477757
 F      2.2178313793    -6.7395180542    -4.2208905715
 H      1.6609568759    -6.6073498071    -5.8115966666
 F      1.5275517316    -6.6012568718    -6.7188204227
          4
Energy: -6.327045348791046 Kcal/mole
 H      3.0425855692    -7.1059187622    -4.1040929918
 F      2.2169997925    -6.7196416953    -4.2045278115
 H      1.6685238305    -6.5983422723    -5.8112697983
 F      1.5361415827    -6.6101456248    -6.7185870644
          4
Energy: -6.327442972547203 Kcal/mole
 H      3.1008265277    -6.5346020575    -4.1078860536
 F      2.2187425308    -6.7612937911    -4.2147863823
 H      1.6673559266    -6.6988234048    -5.8158809937
 F      1.5433311093    -6.6201629152    -6.7210436156
          4
Energy: -6.327740802216056 Kcal/mole
 H      3.0198455453    -7.1675660767    -4.1322789582
 F      2.2202246897    -6.7260938347    -4.2135054736
 H      1.6561971949    -6.5749541365    -5.8071867896
 F      1.5102366544    -6.5917643315    -6.7123397811
          4
Energy: -6.327444124982037 Kcal/mole
 H      3.1106478370    -6.6499145045    -4.1129071968
 F      2.2067507323    -6.7686776901    -4.2116712076
 H      1.6340260075    -6.6761991187    -5.8092282619
 F      1.5094317966    -6.5938471867    -6.7139842742
          4
Energy: -6.327871413761557 Kcal/mole
 H      3.0800389697    -6.5284648807    -4.1061390952
 F      2.2081630032    -6.7896166918    -4.2180365061
 H      1.6382460443    -6.7060564521    -5.8106967903
 F      1.5015398769    -6.6016511424    -6.7114186981
          4
Energy: -6.327825633488089 Kcal/mole
 H      3.0605799764    -6.4748168239    -4.0955756406
 F      2.2091952578    -6.7924625973    -4.2185968729
 H      1.6432370166    -6.7175331443    -5.8128789265
 F      1.5012751173    -6.6010423304    -6.7113029408
          4
Energy: -6.327923522595427 Kcal/mole
 H      3.0544544077    -6.4585368560    -4.0965170966
 F      2.2095202051    -6.7933262119    -4.2185469309
 H      1.6421017770    -6.7189538851    -5.8128856982
 F      1.5013353391    -6.6009669634    -6.7113025816
