          4
Energy: -0.03753184825413314 Kcal/mole
 H      1.1039827598    -0.8578370047     4.8195525347
 F      1.7379496517    -0.6047148663     5.4318467149
 H      5.7262103301    -0.0650937323     1.0951823336
 F      5.0382849491    -0.4682905544     1.5480399192
          4
Energy: -5.687465208789632 Kcal/mole
 H      1.0676300255     0.6367007043     6.6900677179
 F      1.8399748488     0.7932136549     6.2211581634
 H      2.4892906387     0.6643803757     4.5223185413
 F      2.5975708561     0.3233550762     3.6780045360
          4
Energy: -4.292270022656936 Kcal/mole
 H     -0.7960968961     2.4994750574    -4.1560573044
 F     -0.9025624933     2.6801123941    -5.0487634315
 H      0.3375073134     1.2577129732    -1.5839585894
 F      0.0370008875     1.5047373408    -2.4143584027
          4
Energy: -2.1525666858258603 Kcal/mole
 H     -2.0005367286    -0.4727326367    -0.6584138491
 F     -2.9154034469    -0.5198318213    -0.6995180397
 H     -3.2689973129    -3.0394487831     0.3675863593
 F     -2.4066300809    -3.2456664359     0.1337359012
          4
Energy: -1.290334657012778 Kcal/mole
 H     -1.6644024323     5.8950936452    -2.8039911755
 F     -2.4126607371     5.6108505202    -3.2514331886
 H      2.5925366017     7.0601711635    -1.8936820407
 F      1.7238424133     6.9640040610    -1.6161729500
          4
Energy: -4.847004523501823 Kcal/mole
 H     -0.4742005347    -1.1408689690     1.2429527197
 F     -1.1580470727    -1.3577669640     0.6718151073
 H      2.0539884394    -0.2967800418     0.6382238231
 F      1.5146827728    -0.5117632090     1.3480270605
          4
Energy: -3.9579646927555814 Kcal/mole
 H      4.5651369269     0.3651516795    -1.5003845507
 F      4.8250173110    -0.4369502892    -1.1398521420
 H      4.3926561684     2.2498026851    -0.2533386761
 F      3.9550537769     2.3974439077    -1.0455477497
          4
Energy: -5.919199891879742 Kcal/mole
 H      6.1141340897     1.8314517080    -0.1966779653
 F      5.7197477942     2.5345838108    -0.6336604545
 H      7.0957240426     0.6085158451     1.7390337879
 F      7.0706156897     0.8131872070     0.8455192641
          4
Energy: -5.107485681273943 Kcal/mole
 H      3.1186748818     3.8340357799     4.4277320000
 F      2.5545840599     3.9056173647     5.1471530321
 H      4.5036496857     5.5968932944     3.2370740739
 F      4.3711232036     4.7106980401     3.0421799929
          4
Energy: -2.6319654774754326 Kcal/mole
 H     -5.9079440527     0.4486256594    -4.9753881053
 F     -5.4718225381     0.4349614941    -4.1688521080
 H     -3.0180923266     0.8556223448    -3.6505167011
 F     -2.4270676233     1.3603006902    -3.1638149776
          4
Energy: -5.699540138576282 Kcal/mole
 H      3.3153685527     5.3693211716    -6.4791451119
 F      3.9574036734     5.8503222200    -6.0349403221
 H      1.3354144674     3.8993490195    -7.3168616013
 F      1.9306573769     4.5828346756    -7.4562252859
          4
Energy: -6.157224754280605 Kcal/mole
 H      5.4053435937    -5.9705565817     1.7370734332
 F      5.2072905229    -5.6606871767     0.8970466878
 H      6.3550030603    -4.3449948829     0.6475118399
 F      7.0333579608    -3.7653083673     0.8589052469
          4
Energy: -5.905381905046113 Kcal/mole
 H     -0.9112522412     4.5152601177     0.1917363716
 F     -1.7280084794     4.7710063449     0.5209659491
 H      0.2280017800     2.9517977686     0.9468542917
 F      0.4736595058     3.5353643467     0.2835358684
          4
Energy: -4.671309284943817 Kcal/mole
 H      7.4508275441     6.4798527302    -0.5178266236
 F      7.1675073637     6.7141954732     0.3222341802
 H      5.9932305488     5.8217693974     1.6876657326
 F      5.1763567824     5.7017397800     2.0866634025
          4
Energy: -5.244021481214986 Kcal/mole
 H      1.5253277723     5.0935327657     6.1897646731
 F      1.0819289804     5.8007830744     5.8101813329
 H      3.2567058937     3.5899954169     7.3916519600
 F      2.8850986886     3.8403210467     6.5915681118
          4
Energy: -5.433874344566902 Kcal/mole
 H      7.0559273719     1.2790225298    -2.0557882696
 F      6.5666126147     1.5716557977    -1.3375781061
 H      6.4630123236     1.4672025159    -4.1467807182
 F      7.0406674466     0.8747835834    -3.7515044004
          4
Energy: -5.448821528555044 Kcal/mole
 H      6.8221163287     3.5838299243    -2.5799961695
 F      5.9136598875     3.5775995565    -2.7047241817
 H      5.2924849092     5.1592395131    -2.0293031584
 F      5.0103395486     6.0164680258    -1.8666923575
          4
Energy: -6.068573866465101 Kcal/mole
 H      6.2356958733    -3.0956476219     5.7762318471
 F      6.3628403988    -3.6529154754     6.4932923808
 H      5.2359951576    -4.8539293426     7.1089367294
 F      4.4968307103    -5.3940380311     7.1619228082
          4
Energy: -5.315808985726164 Kcal/mole
 H     -2.9278050186     5.4373953962    -5.3003737474
 F     -2.5808503912     5.1015816342    -6.0799509430
 H     -4.3525415795     4.5925100727    -6.5435464764
 F     -5.1369706653     4.5741544121    -6.0689697396
          4
Energy: -5.50584976132896 Kcal/mole
 H      1.3345945455     1.2548075197    -0.2860938171
 F      0.5150402048     0.9714645662    -0.5843159716
 H     -1.1532907381     0.3780029200    -1.1238717334
 F     -1.8689937844    -0.1316540471    -1.3863749246
          4
Energy: -6.166552835920527 Kcal/mole
 H      2.9175210396     4.8234949976    -3.7508755238
 F      3.2192279797     4.6650039244    -4.6021936206
 H      2.3128478034     5.3354394050    -5.8521217933
 F      1.7934539496     5.8899146499    -6.3656159292
          4
Energy: -5.061871634077505 Kcal/mole
 H     -1.5430143091    -1.2497444652    -2.1204490378
 F     -1.3919959101    -1.1685515288    -3.0212765187
 H      0.4701662274    -1.5453528741    -3.0177918276
 F      1.3761644508    -1.6509661762    -2.9234411538
          4
Energy: -5.956594916023988 Kcal/mole
 H      0.9870853076     1.9390460676     3.6605345508
 F      0.5377153581     2.7309134427     3.7696295041
 H      1.8418120003    -0.2814354759     2.6912476678
 F      1.7834399483     0.4739709173     3.2078160415
          4
Energy: -6.0176410517818795 Kcal/mole
 H      0.7446205167    -5.7742750853     5.8346686764
 F      1.1501879237    -4.9519949224     5.8185623999
 H      2.3652981657    -4.0236333465     5.0971868609
 F      3.0750709359    -3.6281567569     4.6720870118
          4
Energy: -5.701742238916012 Kcal/mole
 H      6.8382157837     6.5612953112     3.0577316614
 F      6.5678468038     6.1916787427     3.8521957619
 H      5.5425094982     4.6585683025     4.0123478723
 F      4.8790226690     4.0765213742     3.7635596074
          4
Energy: -5.398627487936693 Kcal/mole
 H      2.3859132860    -0.6336149604    -6.9485733549
 F      1.9154090271    -1.3036007082    -7.3616518464
 H      3.3501406226    -2.6571376009    -7.3541795733
 F      4.2388761035    -2.7727720287    -7.1600998884
          4
Energy: -5.977411589320013 Kcal/mole
 H      7.1969021333    -5.1234029845     1.7647345359
 F      7.0812635170    -4.2336994080     1.9543242413
 H      5.8759990109    -3.5935777833     2.7995535666
 F      5.1194465746    -3.3086951869     3.2324037916
          4
Energy: -6.276492809775732 Kcal/mole
 H     -1.0707504246     6.2167338200     2.4294849985
 F     -1.6190006713     5.9747237835     3.1235612258
 H     -1.7375477741     6.8722261436     4.5523770250
 F     -1.6525948164     7.4564577382     5.2540503384
          4
Energy: -5.6167533736650626 Kcal/mole
 H      3.4685240542     1.4337921430     4.4399796985
 F      3.1948682361     0.6461467637     4.0583827257
 H      1.7301075788     0.0384441798     3.3527236723
 F      0.8481206302    -0.2080242452     3.3053809007
          4
Energy: -6.05568935305854 Kcal/mole
 H      5.1082246970     5.4639699077    -4.2656777763
 F      5.8101880782     5.7891199348    -4.7580332081
 H      3.4240468880     6.2511959350    -3.5642954360
 F      3.6631689586     5.3712372324    -3.4674330746
          4
Energy: -4.907913007833287 Kcal/mole
 H     -1.0846804322     1.6986133836    -2.3319778422
 F     -0.3763430741     2.2727765261    -2.2345926641
 H     -3.0980669032    -0.0670107494    -2.0352399171
 F     -2.6730612359     0.4369665569    -2.6726299527
          4
Energy: -5.956174764624848 Kcal/mole
 H      3.7111895748     3.1149610124    -5.5204968496
 F      3.5844640062     4.0217042861    -5.4690549815
 H      3.4267572145     0.7990047036    -4.9379431935
 F      3.5882057483     1.3557711334    -5.6484602683
          4
Energy: -6.214932488502484 Kcal/mole
 H      5.0823224813    -3.7734511295    -1.6524952232
 F      4.5533602103    -3.6513591677    -0.9134543117
 H      5.0623133196    -3.8082023312    -3.7464474900
 F      5.7338340616    -3.9607243185    -3.1409015080
          4
Energy: -5.556026057553936 Kcal/mole
 H      4.0310157126     6.7440268800    -1.4423164194
 F      4.7049424473     6.2468027959    -1.8157865874
 H      2.3154106522     6.4751021722     0.2573935644
 F      2.4207648092     6.9335284382    -0.5297753249
          4
Energy: -5.95218265091998 Kcal/mole
 H      1.7956423293     4.1784207362    -2.4300526415
 F      1.5050675689     3.4935628206    -2.9661729116
 H      0.6976645359     3.6462117787    -4.5667786651
 F      0.4269330077     3.7335232762    -5.4385413289
          4
Energy: -5.925972485926252 Kcal/mole
 H      4.7750095159    -3.4339105894     4.1298198960
 F      4.2414499498    -3.0886617219     4.7908844986
 H      2.9575146536    -2.6604021558     3.6662442002
 F      2.5586480422    -2.5865303017     2.8438468659
          4
Energy: -6.267214448994082 Kcal/mole
 H      3.0699474597     5.2102183837     7.0295694387
 F      3.0282789556     4.6147419014     6.3334656426
 H      4.4286079516     3.6431865722     6.2397492693
 F      5.2079088431     3.1637973140     6.3011093510
          4
Energy: -5.721063997732983 Kcal/mole
 H      1.5739871409    -2.3355580297     3.4033916638
 F      1.2936764142    -1.6848263610     2.8212720954
 H      2.5925214120    -0.8705096191     2.5414666890
 F      3.4099098572    -0.4553216357     2.5218690321
          4
Energy: -6.157914956675 Kcal/mole
 H      0.9661065077     3.3005358442    -4.9871913297
 F      0.4653469577     3.6140941857    -4.2858996360
 H     -1.2491540602     3.1098404213    -4.1978787933
 F     -2.0359535133     2.6732777646    -4.3746517194
          4
Energy: -6.0823809268978835 Kcal/mole
 H     -1.0328456911     4.7835911228    -0.7723722924
 F     -0.9644160500     5.3362037754    -0.0437944720
 H      0.3204869955     6.0941480516     0.7379885626
 F      1.0737637335     6.3747669565     1.1792551330
          4
Energy: -5.792769667752594 Kcal/mole
 H      2.5656055247     4.2229474490    -4.1865478432
 F      2.9465902524     4.7118957006    -4.8623209150
 H      3.6045318092     6.0332180318    -5.7732509142
 F      3.8197794776     6.7418508861    -6.3139882987
          4
Energy: -6.20583538422369 Kcal/mole
 H      6.5043672506     1.2556251546    -3.0241443414
 F      5.7254787869     1.4243509035    -3.4777448073
 H      5.5045823495     1.1121651100    -5.1719024546
 F      5.4732829009     0.9928593360    -6.0805693225
          4
Energy: -6.230737678210858 Kcal/mole
 H      3.7289578233     3.9547141026    -3.5427055047
 F      3.1733350226     3.2437543777    -3.3792779278
 H      1.5055321144     3.4278925069    -3.1369469093
 F      0.6149886725     3.5723886234    -2.9728059624
          4
Energy: -5.99733174887416 Kcal/mole
 H     -1.1524594314     4.8837254494     0.9039736088
 F     -1.3578995883     4.2227356221     1.5054516135
 H     -0.1833634620     3.0030774132     1.9453655107
 F      0.5434921257     2.4538082991     1.8410899396
          4
Energy: -6.241161867028666 Kcal/mole
 H      0.3914254404    -1.5783608230    -4.1113655155
 F      0.4221474477    -1.7068990567    -5.0187921410
 H     -0.1657545029    -0.4275361548    -5.9123971805
 F     -0.4271621499     0.3924351380    -6.2289443666
          4
Energy: -6.254577343079973 Kcal/mole
 H     -4.3526558089     0.9730384420    -5.9222827947
 F     -5.1134213580     0.4691449362    -5.8316400114
 H     -5.9971274203     1.0743563923    -4.4792293053
 F     -6.2164608273     1.5919432569    -3.7547393508
          4
Energy: -6.292844253780231 Kcal/mole
 H     -2.6472801898    -2.9490113317    -0.4552718355
 F     -3.0059860898    -2.2929517628    -0.9861248466
 H     -1.9788108572    -1.6609800845    -2.1929748215
 F     -1.3417028748    -1.4783343483    -2.8267121123
          4
Energy: -6.26071728148014 Kcal/mole
 H     -5.4578814580     1.6404344247    -4.7991320760
 F     -4.5469713619     1.5538195611    -4.8593787540
 H     -3.9289195701     0.5043633841    -5.9925956723
 F     -3.6614263678    -0.0967391322    -6.6313539612
          4
Energy: -6.32608706600422 Kcal/mole
 H     -4.4309107540     2.7979041306    -5.2323172594
 F     -4.8017215626     2.1083248201    -5.7096732259
 H     -3.7185064202     1.1584965270    -6.6136319980
 F     -3.0007620103     0.7635081122    -7.0255981547
          4
Energy: -6.327562058582146 Kcal/mole
 H     -4.4229361433     2.7990929681    -5.2403725961
 F     -4.8021445973     2.1082617550    -5.7092459089
 H     -3.7148923777     1.1598570856    -6.6086902235
 F     -3.0009537269     0.7634359377    -7.0258603044
