          4
Energy: -0.21095104540715873 Kcal/mole
 Ar     2.5674566374    -5.1884815662     0.4825296074
 Ar    -2.9151543601     0.2288995208    -6.8403743804
 Ar     3.1172202231     2.4196684417    -5.9801671825
 Ar    -1.5378316347    -5.8286251153    -0.2651762473
          4
Energy: -0.06866332923776845 Kcal/mole
 Ar    -3.9314102549     0.4535409111     1.2678870706
 Ar     4.8849277336    -1.2449839968    -4.2347389622
 Ar    -5.3032576467     6.6440468102     5.2082759445
 Ar    -3.7713637226    -3.6236660127     4.7265897725
          4
Energy: -0.0383808560016537 Kcal/mole
 Ar    -2.0727881695     5.2637909383    -2.2952516876
 Ar     3.1530847982    -7.0112121229    -6.3532339390
 Ar    -4.6798573505     6.9221755205    -7.3312105354
 Ar    -1.5123816003    -4.7850902193     0.3184908777
          4
Energy: -0.0020374245027603233 Kcal/mole
 Ar     7.1313356452     4.9086098457     1.0602373293
 Ar    -5.9986394228    -6.8722189776    -0.7555276944
 Ar    -6.7660394010     5.1994796462     3.9049873329
 Ar     2.2959181309    -6.0841571114     5.7346284344
          4
Energy: -0.22923684482559858 Kcal/mole
 Ar    -3.5282848637    -0.4579159964    -6.1798202616
 Ar    -6.8711737921    -1.6259403916    -7.2141177127
 Ar    -1.1586969214     4.8679823607     3.6995876150
 Ar    -3.3682225640    -1.7749691662     7.1886563829
          4
Energy: -0.23421295404001194 Kcal/mole
 Ar    -6.1581923812    -7.3478855366     0.2926357144
 Ar    -0.3441719273    -4.4608197287     3.5702171985
 Ar    -5.6719386511     3.9573668487    -4.8592510044
 Ar    -1.3790065857    -5.0255265272     7.3857408668
          4
Energy: -0.668140739228799 Kcal/mole
 Ar    -1.9421442146     6.4121225854    -3.8015082745
 Ar    -3.3413318055     4.6527809527    -0.3469570245
 Ar    -0.5941540827     7.1196403735     0.3265018766
 Ar    -4.3215672201     7.0343230258     4.7811487711
          4
Energy: -1.1698482188323944 Kcal/mole
 Ar    -7.3912800276     2.7803972439     2.2862494899
 Ar    -5.4155274433     5.8631710117     3.8180743104
 Ar    -3.8244845264     5.2352998403     0.5052696577
 Ar    -3.9865900565     2.6031606555     3.4576026388
          4
Energy: -1.2258722699827973 Kcal/mole
 Ar    -3.7493549882     2.3717815811     0.8665171171
 Ar    -3.0083680302     3.5092519321     4.4843632436
 Ar    -1.0906608569     5.3908689462     1.5548337401
 Ar    -5.6447282008     5.5831533892     2.4911875335
          4
Energy: -1.4031388783516532 Kcal/mole
 Ar    -3.8416810212     2.2772578647     0.9480560143
 Ar    -2.9759549561     3.3039586363     4.5160324244
 Ar    -1.5733788449     5.2736827905     1.5708668431
 Ar    -5.2791998747     5.4924672418     2.3962963489
