          4
Energy: -0.48363661624669785 Kcal/mole
 Ar     5.5871280623     1.9835081504    -2.8263519201
 Ar     5.5180648813    -1.7597942423     2.2754210616
 Ar     5.7411245578     4.2742005839     1.5505892176
 Ar     3.4714249262     5.8848789499    -1.1754031506
          4
Energy: -0.5555505877591644 Kcal/mole
 Ar    -3.1134452605    -4.4046445132    -3.2892273088
 Ar    -3.6405536876    -3.4792204649     0.3555578198
 Ar    -0.4236503819    -2.0285729636     0.7256943720
 Ar    -7.0021026779    -7.3613453399    -4.1247287091
          4
Energy: -0.02182868008633483 Kcal/mole
 Ar     3.7556159388     6.0931321278    -4.2839397600
 Ar     6.0187801388     3.9159996141     4.1804294417
 Ar     5.2596720727    -6.0671281574    -3.2203520844
 Ar     0.5792543095    -2.9702623881    -6.7615217302
          4
Energy: -0.3853977441988946 Kcal/mole
 Ar     6.8670913988     2.2469595917    -4.9024240591
 Ar    -4.4361368435    -6.3908693364    -5.8369975913
 Ar     5.3311670574    -0.8954784284    -3.3358914188
 Ar     5.8860836477    -5.0680922811    -1.7984591645
          4
Energy: -0.6558417234771066 Kcal/mole
 Ar     4.2451509021     2.9494623142    -1.2112976392
 Ar    -2.1876708175     1.6748794489    -1.6560772554
 Ar     2.7344870327    -1.1821361835    -1.9358651666
 Ar     4.8808137159    -0.1692430661     1.2295092219
          4
Energy: -0.8877317253030192 Kcal/mole
 Ar     3.5040481908     2.4768287339    -2.7939331627
 Ar     4.3670872646     3.2037018922    -7.3184913656
 Ar     4.2239551078     4.5761240185     0.2142544604
 Ar     4.4838960122     6.0373179974    -4.2459610362
          4
Energy: -1.1343428147322347 Kcal/mole
 Ar    -4.7780825709    -0.9732819435    -1.2858242310
 Ar    -3.3647466248    -5.7402190146     0.8971016743
 Ar    -1.2272243829    -2.4144425476     0.0155156217
 Ar    -4.7310327540    -2.3223597541     2.2849719316
          4
Energy: -1.2800996337337958 Kcal/mole
 Ar    -1.5611663950    -3.3069039553     0.1397023136
 Ar    -4.3809491465    -4.1318616489     2.5876393046
 Ar    -3.2750755222    -6.7027890878    -0.5492112740
 Ar    -1.6320617450    -6.7468865071     2.7513903531
          4
Energy: -1.365098460071884 Kcal/mole
 Ar     2.5755975582    -2.2496551443     0.5946858873
 Ar     1.1169339056    -4.6616069314    -2.0500718495
 Ar     2.9581924221    -5.9760741725     1.3404895678
 Ar    -0.5349882217    -4.1716053889     1.4513431729
          4
Energy: -1.402956083630332 Kcal/mole
 Ar     2.5228134165    -2.2759138373     0.7154938552
 Ar     1.2726030658    -4.7966701514    -1.8834336614
 Ar     2.7072598679    -6.0260571362     1.4173088249
 Ar    -0.6933421921    -4.2611392462     1.3420858582
