          4
Energy: -0.22290666802422354 Kcal/mole
 Ar     4.3154519242    -0.2740183631    -7.2975605938
 Ar    -4.6198378843    -1.3105014643     5.2985714711
 Ar     1.1964708975     3.8474334659     6.3947807173
 Ar     3.4626668475     1.3594315865     4.1328268207
          4
Energy: -0.02635003418367688 Kcal/mole
 Ar    -5.7404403316     0.3583677065    -6.6737020359
 Ar    -6.8433781058    -1.8484242530     0.3954081495
 Ar     2.4919374677    -4.2217087425     0.1983901927
 Ar     2.6972103267    -1.4579701621    -6.2696559365
          4
Energy: -0.3442306136429946 Kcal/mole
 Ar    -6.9222633330     3.5370364477     4.8774968801
 Ar    -1.8164134355    -2.9226678878     2.3971283643
 Ar    -5.0091007654     5.2276429050     7.4238757901
 Ar    -4.5475464261    -4.4925365272     5.6411124739
          4
Energy: -0.02441475637700001 Kcal/mole
 Ar    -1.2611741942     5.0316828416     5.7637268328
 Ar     3.2761830735     2.2242358263    -5.7358668574
 Ar     3.7744534388    -0.1987030880     0.3556567455
 Ar    -1.3620143439    -6.8162350220     2.9641932240
          4
Energy: -0.8548770579112182 Kcal/mole
 Ar    -1.8690354340    -0.4583817948    -3.8362352730
 Ar    -2.8338807664    -1.9659987279    -7.2808322249
 Ar     0.2073044400    -0.9060918587    -0.2731378067
 Ar    -3.5595542938     2.0562258111    -6.4803101503
          4
Energy: -0.2049144236993384 Kcal/mole
 Ar     3.4367109878     2.4300872735     1.0845187851
 Ar     1.6410196269    -7.2014353665    -5.1240945003
 Ar     1.2522311468    -2.3724011430    -5.1826136638
 Ar     2.5074024839     4.2151616149     5.4710675908
          4
Energy: -0.5203550429817055 Kcal/mole
 Ar    -5.1699982394    -0.0173519667     1.9490269878
 Ar    -0.5030026565     1.3146416899    -1.6598687748
 Ar    -2.7537856275     2.6235063106    -4.4819561821
 Ar    -6.6239412197     3.2625710148    -4.5303240554
          4
Energy: -0.7008115964770025 Kcal/mole
 Ar    -4.1067358650     3.1939620739    -5.6489326113
 Ar    -0.4222847197     4.2145173438    -6.9049003831
 Ar    -2.3262581620     0.1064474778    -3.5666487129
 Ar    -0.1483056956    -0.8265913019    -0.4304324679
          4
Energy: -1.3458319937090986 Kcal/mole
 Ar    -3.3252327898     3.1264360198    -3.2052311182
 Ar    -4.1928865150    -0.4705634692    -4.9064252319
 Ar    -0.5387798257     0.5696684753    -4.6348385768
 Ar    -3.1064367784     2.4974418938    -6.9997510834
          4
Energy: -1.4031668952160168 Kcal/mole
 Ar    -3.2670414489     2.9695714073    -3.3615703249
 Ar    -4.2377191217    -0.4168603745    -4.8088011161
 Ar    -0.5846782411     0.7055982161    -4.8234300078
 Ar    -3.1182241624     2.3870713216    -7.1316838597
