          4
Energy: -0.25449024751438554 Kcal/mole
 Ar     6.8680892212     2.6274208310    -1.2385431842
 Ar     6.6656020672    -1.3715125065     7.1969906836
 Ar     7.0359200070    -4.7446729227     5.4973892489
 Ar     0.9243975276     2.7171442618     2.4815011989
          4
Energy: -0.42955630816231416 Kcal/mole
 Ar     0.4478226423     1.8992416574     0.6595487513
 Ar     0.4671676367     1.4714247271    -3.0889441501
 Ar    -1.6969879490     0.7385570330    -6.7251215776
 Ar     2.5182722165    -0.0907017695     6.7680024816
          4
Energy: -0.4535431405318316 Kcal/mole
 Ar    -3.7402466374    -4.1757224076    -6.1029090122
 Ar    -0.2439840652    -5.3417111548     2.8652629147
 Ar    -2.1505267233    -5.2350938081     6.4445726781
 Ar    -0.2370940281    -3.2011991032    -4.9706753472
          4
Energy: -0.022231747836354083 Kcal/mole
 Ar    -0.1985389308    -0.8840618757     7.2118362675
 Ar     2.3265126936    -7.2593961341    -3.5993865792
 Ar    -7.2536772916     2.6547880995     5.6941118291
 Ar    -2.8785044691    -6.0809989328     0.9607803321
          4
Energy: -0.4177356781363229 Kcal/mole
 Ar     1.4308394420    -5.7085152112     4.6017384689
 Ar    -0.1384326535     0.8680508290     6.6860116765
 Ar     5.1903360994    -0.0177957254     3.4390245034
 Ar     0.0753686091    -2.6551450856     7.2792851938
          4
Energy: -0.835702317753158 Kcal/mole
 Ar    -0.5992424983    -4.2032726816    -2.8604562325
 Ar    -0.8671132005    -3.3723457663     1.9581105392
 Ar     2.4013697475    -2.0716642128    -1.8997019699
 Ar    -3.0298711531    -5.8797175416     0.0712719296
          4
Energy: -0.8979439670506306 Kcal/mole
 Ar     1.0272792780    -2.1440203879     1.1488886830
 Ar    -1.7197116154     5.1752046752     1.4008165705
 Ar     3.0643617903     0.2985960362     2.9477054890
 Ar     0.1035324103     1.5299901366     0.7549440366
          4
Energy: -1.2342789795726596 Kcal/mole
 Ar    -6.5163288949     3.7024140925     3.2314408159
 Ar    -4.1260890212     6.4481364067     3.4211394030
 Ar    -7.1800331196     6.9966473594     1.4178498757
 Ar    -3.8927629940     4.4292261798     0.5257549355
          4
Energy: -1.2731148022238692 Kcal/mole
 Ar    -3.3275984660     5.9871492543     3.6280935879
 Ar    -2.8544843853     1.8313112368     3.8951954451
 Ar     0.2428037901     3.8359012400     2.5379062050
 Ar    -3.0918324504     3.4795362054     0.5487542908
          4
Energy: -1.4032626881794474 Kcal/mole
 Ar    -3.1784716297     5.7955339696     3.5944121374
 Ar    -2.8712223255     2.0471845437     4.2198035464
 Ar     0.0034456654     3.9555322110     2.5722052072
 Ar    -3.2431855901     3.3480557965     0.6492999558
