          4
Energy: -1.012595730510524 Kcal/mole
 Xe     0.2156622138    -4.9343831754    -5.9210710843
 Xe    -5.7053811532    -0.0677152573     7.9784416380
 Xe     2.6528895535    -8.1090857382    -4.4189346168
 Xe     4.9759472355    -3.6386010440    -4.8033666020
          4
Energy: -0.9451400627679766 Kcal/mole
 Xe     6.5126443505    -0.3549681632     1.2917543619
 Xe     7.7766249251    -4.8582697524     2.1430982014
 Xe     5.1581924281    -4.1246086141    -2.0735820230
 Xe    -7.9638018973     3.2574451331     1.6595381871
          4
Energy: -1.7490472780995996 Kcal/mole
 Xe     4.3554783980     5.9411588941     1.9248732699
 Xe     2.5890330479     5.3684580405     6.3415748021
 Xe     5.8874532458     2.9531138162     4.7967948560
 Xe     3.7499747108     2.5450427523    -1.1873400924
          4
Energy: -2.055561360297879 Kcal/mole
 Xe     0.9226029435     5.7670753843     5.9263406580
 Xe    -1.5554982598     3.8922439019     2.6886705770
 Xe     3.4326854685     2.7832948685     7.5010993055
 Xe     2.6771007262     2.1438384924     3.1833337612
          4
Energy: -1.4319838699780434 Kcal/mole
 Xe     3.7068610743     2.1553981831     0.3857571063
 Xe     1.8584361692     1.9998277028     4.0161296661
 Xe    -1.4288399697     4.6941763067     4.9211965785
 Xe     3.0239077258     5.8863395078     6.7871504978
          4
Energy: -2.5514213241198735 Kcal/mole
 Xe     4.2218861869    -0.2260727752    -3.0162991454
 Xe     3.5717708945    -4.3546673437    -4.6999828092
 Xe     2.9356506811    -3.5366185433    -0.1924090422
 Xe     7.0090804728    -3.4294397697    -2.0420102314
          4
Energy: -2.1896024086403933 Kcal/mole
 Xe     4.7945150714    -5.1042004421    -5.3164498085
 Xe     5.6886370957     0.5302335573    -2.2561191828
 Xe     7.2024092387    -3.5814053156    -1.7022199300
 Xe     2.9635418343    -3.0920690740    -1.9442210092
          4
Energy: -2.500007631657493 Kcal/mole
 Xe     6.0842066051     0.8707072182    -0.5172537162
 Xe     3.4632352975    -0.7539402184    -3.8079823147
 Xe     2.2777100200     2.5198270967    -0.8804127596
 Xe     2.5476369071    -1.6551684418     0.4615973832
          4
Energy: -2.515350702946921 Kcal/mole
 Xe    -2.4162811502     2.3252670822    -2.0944139334
 Xe     0.2680065689     4.5625967926     0.5918655122
 Xe     2.1924333385     2.1072275049    -2.6084341449
 Xe     0.1742749847     0.3282656762     0.7536489339
          4
Energy: -2.5977430106775516 Kcal/mole
 Xe    -2.3081641326     2.2670882431    -2.2266668512
 Xe     0.2261777650     4.5158879136     0.6060494989
 Xe     2.0871944008     2.2645266907    -2.7185616782
 Xe     0.2340103769     0.0879129623     0.6417498680
