          4
Energy: -0.8840380262484823 Kcal/mole
 Xe     1.0489843965    -1.3522896510     4.7100874129
 Xe     1.7248828350     4.9704530585     2.1331675485
 Xe     0.5231478784     7.1194961378    -1.2765712022
 Xe     5.0581514613    -3.3985841029     5.0207725650
          4
Energy: -0.3691750637638653 Kcal/mole
 Xe     0.2335617280    -0.6034160008     3.1568502441
 Xe    -1.5028588696    -6.4795193819    -6.5399292603
 Xe    -4.8994324824    -3.3252477382    -8.0344381822
 Xe     1.5359464381    -7.9947758029     7.3144967589
          4
Energy: -0.33459935616237124 Kcal/mole
 Xe     1.6258238140    -5.7386612523     3.3063407648
 Xe    -6.6702412225     4.2830450615    -0.9937602036
 Xe    -4.0209688297     0.5823745863     1.5536818662
 Xe    -0.3938930347    -1.7575506982    -4.5205909361
          4
Energy: -1.2295401300508801 Kcal/mole
 Xe     5.7139944185    -1.8523039693    -1.7552214829
 Xe     4.7700391568     4.5681730171    -2.3942441050
 Xe     4.2489342088     0.7460237852    -5.2400361381
 Xe     3.8159727923     6.3775068594     2.0317289654
          4
Energy: -1.5149133268719575 Kcal/mole
 Xe    -1.6727375891     2.1987028551    -2.6997287379
 Xe     1.6157257410    -0.1607796209    -1.6615475795
 Xe    -3.4740730334     0.2217379157     1.2698572551
 Xe    -2.1529278033    -1.7229699924    -1.9870221862
          4
Energy: -2.151564488222731 Kcal/mole
 Xe    -1.2374337504    -1.7457812722    -3.1380255116
 Xe     1.4689993378    -6.3759930234    -2.5349199205
 Xe     1.6382356680    -3.0628151047     0.3105391524
 Xe    -2.5128988960    -4.2565812577     0.1551920683
          4
Energy: -1.259730486009 Kcal/mole
 Xe     4.3410022743    -0.9709288403    -5.0388191007
 Xe     3.7637404094     3.0455669281    -5.8631783974
 Xe     1.2422448079    -5.8780102057    -7.0416588530
 Xe    -0.1905521307    -0.6477231773    -5.3105106785
          4
Energy: -2.2581526261036515 Kcal/mole
 Xe     7.7620764383     3.6720592078    -2.9925153503
 Xe     7.2259130395     2.7147302038     1.1025382271
 Xe     3.4773900044     2.7465841175    -2.5062557589
 Xe     6.1488286125    -0.8142619412    -1.6173192415
          4
Energy: -2.5790406979749245 Kcal/mole
 Xe     3.6756743346     4.3254579279    -1.2606947450
 Xe     3.7624466516     2.1543037848    -5.0061537215
 Xe     1.2583941024     5.8614176741    -4.7251734936
 Xe     5.6487652840     6.0866847944    -4.7326821348
          4
Energy: -2.597722050481498 Kcal/mole
 Xe     3.4299610117     4.3130328518    -1.3263332838
 Xe     3.6787178029     2.1158433486    -5.1627221818
 Xe     1.2238375722     5.7637852175    -4.8770102629
 Xe     5.6269840305     6.0511781241    -4.7451174844
