          4
Energy: -0.2002953269260794 Kcal/mole
 Ar     0.0089489102     0.3912620323     5.3215600189
 Ar     5.5518309820     6.3075273456     0.4802117903
 Ar     5.2285618172     3.8213307963    -6.0491657023
 Ar     3.8079756423     2.2962941380     3.4724792207
          4
Energy: -0.15490403281742093 Kcal/mole
 Ar    -2.9009373615    -2.1833091640    -5.3348219621
 Ar    -6.4783871576     1.3579590570     2.3248667922
 Ar    -4.6017877677    -2.0683763526     4.4780951961
 Ar     5.8934215361    -3.1189526543    -4.8650252873
          4
Energy: -0.11515991272608683 Kcal/mole
 Ar     3.1957893921    -1.8078930902    -5.4819020046
 Ar    -3.8864538717    -0.5168576195    -7.1108929689
 Ar    -2.6306283056     1.8139095413     3.8408811224
 Ar     0.1798196852    -5.4141709923    -7.1843446572
          4
Energy: -0.050182590910285485 Kcal/mole
 Ar    -0.0199727114    -2.9803273009     3.7293870274
 Ar     6.2212198881     3.4964016724     7.2194698839
 Ar     4.8647270273    -5.7075882754     4.2646022465
 Ar     0.0563078785     2.0887970619    -4.0114897981
          4
Energy: -0.9745896854404891 Kcal/mole
 Ar    -5.1025680147     0.0073939943     4.6827511540
 Ar    -5.6619723788     2.3432142805     1.0560998257
 Ar    -1.9706074449     3.8481918146    -0.3366249822
 Ar    -2.1344856148     1.2364788471     2.0937214964
          4
Energy: -0.048453713545284445 Kcal/mole
 Ar     7.2446096645    -1.9323169095     7.1166597445
 Ar     6.7993475839    -4.2294224818    -3.4775417744
 Ar     7.1451465996     3.4549211015     3.5815176671
 Ar     2.4099675533    -3.3595956656     1.6317978067
          4
Energy: -1.1846819541575506 Kcal/mole
 Ar     3.5998294142     6.6054993062    -2.4998649297
 Ar     1.6351928024     5.9903918467    -5.8936736707
 Ar     0.4701906550     4.6425091815    -2.1043196106
 Ar     3.6645271318     2.6373969281    -3.8150984556
          4
Energy: -1.173225037614653 Kcal/mole
 Ar     0.8440684953     5.3686055622    -3.1427777399
 Ar    -2.6253414735     3.9571140017    -5.0885102078
 Ar     0.1036603715     1.6728666616    -2.5783518534
 Ar     1.7021376741     2.7994362704    -5.9807453093
          4
Energy: -1.304640044463147 Kcal/mole
 Ar    -0.1255372706    -0.3777326089    -2.8860553722
 Ar    -2.7606217336     2.1662416333    -4.3008584073
 Ar     0.3776758510     3.5835322471    -3.1432265929
 Ar    -1.9196394522     2.4162296702    -0.4041599670
          4
Energy: -1.403215488458471 Kcal/mole
 Ar    -0.1640089562    -0.1629840466    -2.7162070451
 Ar    -3.0631972929     1.9828627949    -4.0105862384
 Ar     0.3154711898     3.5869715556    -3.2699302085
 Ar    -1.8799785709     2.3539326547    -0.4008075940
