          26
Energy: -104.25241868087305 Kcal/mole
 H      0.2314170935     1.9096326973     3.4523084568
 F      1.0683805964     2.2802872384     3.5070469808
 H      0.0340079502     0.0138327466     6.6937495884
 F     -0.4844978348     0.0099375471     7.4500733143
 H      0.2379360228    -4.2237944496     3.0194325496
 F     -0.2609658190    -4.4116118799     3.7655629438
 H     -1.1051563527     0.1294852200     3.1971936796
 F     -1.1747270670     1.0412819355     3.2655725163
 H     -2.3309971536    -3.1843286206     6.6341722029
 F     -2.4446601766    -3.7836856151     5.9495256442
 H      1.7791508821    -2.9882906036     2.3092529581
 F      1.3002740731    -3.6481606482     1.8895655435
 H     -1.5645346303    -1.2392085486     7.7000734587
 F     -2.1524416153    -1.9420987842     7.7347100524
 H     -2.9322124287    -3.2296565175     4.4602342354
 F     -3.0725593514    -2.7752625423     3.6761947870
 H      0.8729358169    -1.1999710924     5.2454070184
 F      0.8396604795    -0.2839894141     5.2729627235
 H     -1.7143385512    -1.9901006686     3.2334374954
 F     -0.9370205569    -1.5178987036     3.1164287780
 H      0.1883266322    -3.4573483227     5.0485891580
 F      0.4692632394    -2.8229389831     5.6481626836
 H      2.2736201065     1.2285261099     3.1022132237
 F      2.8592994160     0.5789817859     2.8266031413
 H      2.6129184199    -0.9995223760     3.2181075935
 F      2.4156672874    -1.8763773262     3.4000591998
