          26
Energy: -103.06495173593686 Kcal/mole
 H      2.2159633954     6.1331362927     4.7439433974
 F      3.1196840221     6.1308306807     4.8994191613
 H     -3.9404558902     0.1161278505     6.6488410438
 F     -4.7935405873     0.3802772814     6.8570730724
 H     -0.1228810431     1.2092478814     2.0224575113
 F     -1.0286719500     1.1193518866     2.1335905083
 H      0.3572373844     5.0878135100     4.0433223797
 F      0.6298012775     5.9152632466     4.3295475666
 H     -4.6674161444     3.7567325000     6.0310812097
 F     -4.1300928585     4.1497038294     5.4004099636
 H      1.8526698105     2.2149102014     1.8493430930
 F      1.5172553261     1.3617581197     1.8720949971
 H     -5.3064035735     1.9317328454     7.0847691061
 F     -5.4939102782     2.8287305574     7.1183151990
 H     -2.9777252459     3.1830823449     4.7559176100
 F     -2.3318330298     2.6097614966     4.4476718474
 H     -2.2600039004    -0.4215058571     5.2943489506
 F     -2.4048501463    -0.2682298639     6.1867698350
 H     -0.8763058454     3.1896267924     3.8496234729
 F     -0.0676049383     3.5528573991     3.6151978572
 H     -1.7228134126    -0.0463341205     3.1064927066
 F     -2.0616862505    -0.6793551961     3.6768772415
 H      4.0228078756     5.1138624297     3.9478320629
 F      4.3689756621     4.5031674292     3.3578248766
 H      3.2158173971     3.9830555316     2.3158580135
 F      2.4773428071     3.7483818625     1.8254780089
