          26
Energy: -104.22966803077996 Kcal/mole
 H      0.2516650529     1.9783691649     3.2838134796
 F      1.0878922796     2.3386476550     3.3924985055
 H     -0.1512190613     0.0846861115     6.4744537258
 F     -0.7327084874     0.0928172613     7.1834621403
 H      0.1870262142    -4.1571277718     2.8461573144
 F     -0.3106015960    -4.3615045807     3.5887781345
 H     -1.1004451486     0.2138663677     2.9743327069
 F     -1.1466084068     1.1288036738     3.0149243258
 H     -2.4172682724    -3.2034052709     6.5479032894
 F     -2.5519072074    -3.7880757489     5.8544180413
 H      1.7412643101    -2.9246173474     2.1699352591
 F      1.2487577940    -3.5612529172     1.7305931568
 H     -1.6893839007    -1.2225110875     7.5534203526
 F     -2.2122519906    -1.9685108762     7.6582167066
 H     -2.9959703793    -3.1268793598     4.3995266903
 F     -3.1210610337    -2.6284557020     3.6400431912
 H      0.7893682365    -1.1494197774     5.1058580722
 F      0.7783824859    -0.2327574280     5.1281840787
 H     -1.7560500127    -1.8918480763     3.1224850529
 F     -0.9726047794    -1.4445970063     2.9579583169
 H      0.0946721236    -3.4004235035     4.8829711217
 F      0.3345244353    -2.7603361346     5.4942386807
 H      2.2911213357     1.2637208179     3.0600826889
 F      2.8815841550     0.6069447025     2.8133281685
 H      2.6056653082    -0.9809613346     3.1470047808
 F      2.3955346079    -1.8613860669     3.2939278203
