          26
Energy: -104.19184634302167 Kcal/mole
 H      0.8891934366     2.0967799723     3.6520181014
 F      1.6474184834     2.5145456897     3.9544343440
 H     -0.4037393469     0.3443631214     6.4943063111
 F     -1.2470866227     0.3534910107     6.8542661061
 H      1.4457390800    -4.0325647820     3.6708489752
 F      0.7229202629    -4.2133469383     4.2053952966
 H     -0.2476846911     0.2369215098     3.1153768761
 F     -0.3475517535     1.1481243340     3.0903772175
 H     -2.2293961811    -3.1673005833     6.2278450454
 F     -2.0918558519    -3.7950860115     5.5737371690
 H      3.0806210711    -2.7386856040     3.4654723405
 F      2.8123388786    -3.4499973454     2.9526865454
 H     -2.0717185541    -1.0620308706     7.1640239664
 F     -2.4820756947    -1.8778534149     7.2472681455
 H     -2.1653979755    -3.2925406450     3.9959569848
 F     -2.1084239790    -2.8523365108     3.1935460651
 H      1.1230044789    -0.8802225616     5.8138480244
 F      1.0453524075     0.0318198157     5.7587312600
 H     -0.7470169633    -1.9433358680     3.1474979222
 F     -0.0122761677    -1.4042579517     3.2496740612
 H      0.6402057522    -3.1787237526     5.5029783290
 F      0.6520103592    -2.5067846671     6.1268753690
 H      2.9758881636     1.5375659113     4.0079119284
 F      3.6557987494     0.9235578801     3.9678528097
 H      3.4023460174    -0.6397219600     4.4286854638
 F      3.2215899115    -1.5186357016     4.6177009788
