          26
Energy: -103.53536015030282 Kcal/mole
 H      3.7726620169     3.5985306253     5.1409555474
 F      3.1133181919     3.3186511513     4.5683979517
 H      1.2976592333     1.2740512201     4.6198982650
 F      1.8067385355     0.5612070758     4.8911555044
 H     -3.1475338570     4.6640533051     2.7193790842
 F     -3.5211468182     3.9746868888     3.1948538988
 H      5.3645908601     3.8329404059     6.8339244906
 F      4.9498161208     4.2449822488     6.1274739012
 H      5.3520378336    -0.0915839533     6.1604136755
 F      6.1520868695    -0.5269809938     6.2664323399
 H     -1.3976403286     5.3705259582     1.7280406976
 F     -2.2293165063     5.7298613429     1.8697510243
 H      3.2633882455     0.8479504271     5.6279626836
 F      4.0598612063     0.9609718787     6.0681285321
 H      7.2890924839     0.5006987756     6.8883420952
 F      7.7704584478     1.1949809708     7.2449203368
 H     -0.5461905147     2.2433102153     3.8078428573
 F      0.2800275668     2.4918180119     4.1184818065
 H      6.8063084447     2.4019101124     7.8129794461
 F      6.1708897330     3.0235863579     8.0380365646
 H     -2.6522466579     2.5729764021     3.2705160712
 F     -2.0614623063     1.8722246292     3.2989731045
 H      2.3892315523     4.5000576821     3.6725940627
 F      2.0045550215     5.1584021147     3.1631869813
 H      0.7333761987     4.7191347209     2.2020423198
 F      0.0161335230     4.4972879539     1.6755103112
