          26
Energy: 2.1828925341379417 Kcal/mole
 H      3.8046161150    -3.5573162595     6.2314849848
 F      4.1174936535    -3.5573162595     5.3695124528
 H      4.8239170346    -2.4748949598    -2.6003738245
 F      3.9685874368    -2.8055008870    -2.6003738245
 H     -4.0659056717     5.1355960522    -1.5150145486
 F     -4.0916303744     5.1355960522    -0.5983754486
 H     -0.0817017101    -5.0554124678     0.7738287053
 F      0.8319771060    -5.0554124678     0.6958542165
 H     -2.6054662736     5.2568949352     2.5571811871
 F     -2.0494959323     5.2568949352     3.2864177602
 H      1.4849715860    -3.1092282088    -4.6281159052
 F      1.8061534037    -3.1092282088    -5.4870287296
 H     -1.2669008473     0.4127802942    -5.6889105175
 F     -1.1566852582     0.4127802942    -4.7785581001
 H     -3.2033727266    -3.0217320128     1.5655641290
 F     -3.8858210176    -2.4092343964     1.5655641290
 H      2.0970772395     0.4628081494     4.8353947441
 F      3.0140772395     0.4628081494     4.8353947441
 H      5.8922224531     1.0867975005    -1.2118800814
 F      5.4439027213     1.8867340092    -1.2118800814
 H      4.4917332034     3.9500903386     1.6366933604
 F      4.0643605825     3.9500903386     0.8253724356
 H     -2.4433128877     5.4649255906    -4.7505263167
 F     -1.5263128877     5.4649255906    -4.7505263167
 H     -4.5345066193     1.1239151725    -0.9018299736
 F     -4.0321501284     0.3567600669    -0.9018299736
