          26
Energy: -104.2354491219829 Kcal/mole
 H      0.0980690052     2.0493704568     2.9452362577
 F      0.9292682753     2.4220467908     3.0506360846
 H     -0.5662462052     0.4186334887     6.3023492557
 F     -1.1894991614     0.4730321254     6.9727860842
 H      0.0471355057    -4.1380636006     3.1370095129
 F     -0.5323436119    -4.2383738029     3.8405937762
 H     -1.2049830849     0.2382676587     2.7256577166
 F     -1.2783860603     1.1518372776     2.6957988055
 H     -2.8790082528    -2.8024554638     6.3328096088
 F     -2.9752381742    -3.4091146122     5.6519326156
 H      1.6531544570    -2.9946314885     2.4552437280
 F      1.2242895294    -3.7040333475     2.0631813907
 H     -2.1764451026    -0.8294331496     7.3349213949
 F     -2.7132250370    -1.5661570413     7.4348924377
 H     -3.2623607393    -2.9248776582     4.0788100022
 F     -3.2892013117    -2.5234932856     3.2547595370
 H      0.4667877937    -0.9008193059     5.1102776457
 F      0.4417614091     0.0140239660     5.0526194463
 H     -1.8546136146    -1.8374664452     2.8956588957
 F     -1.0504658469    -1.4034491790     2.8190796538
 H     -0.2348138022    -3.1702445121     5.0632346426
 F     -0.0325840899    -2.4805568641     5.6327283577
 H      2.1340362449     1.3084309831     2.8710825240
 F      2.7169892898     0.6168080799     2.7203758315
 H      2.3959546801    -0.9164378607     3.2470184476
 F      2.1623140090    -1.7676938065     3.4953415268
