          26
Energy: -104.26327529984934 Kcal/mole
 H      0.2221458805     1.9076243184     3.4505161122
 F      1.0579137634     2.2816283020     3.5005367706
 H     -0.0257218804     0.0302905980     6.6504141646
 F     -0.5807687918     0.0412305162     7.3802718523
 H      0.2586417058    -4.2336028298     3.0302640907
 F     -0.2334594428    -4.4149982581     3.7824749376
 H     -1.0985403369     0.1193304658     3.1996826769
 F     -1.1773349249     1.0298214022     3.2750926734
 H     -2.3239507714    -3.2147512375     6.6541563959
 F     -2.4478713745    -3.8052174549     5.9635897226
 H      1.7729894963    -3.0013102726     2.2883624416
 F      1.2993642206    -3.6729993478     1.8816661365
 H     -1.5786433814    -1.2553688109     7.6954118286
 F     -2.1229248245    -1.9897689987     7.7682340426
 H     -2.9190918699    -3.2369862878     4.4713616130
 F     -3.0523032677    -2.7789063943     3.6882227142
 H      0.8866821600    -1.2048066793     5.2611616051
 F      0.8507047313    -0.2886650927     5.2778714159
 H     -1.6905554936    -1.9994980380     3.2342413330
 F     -0.9147405412    -1.5265352983     3.1105222704
 H      0.2130556989    -3.4603640643     5.0655421853
 F      0.4843994672    -2.8260411852     5.6696084436
 H      2.2641148887     1.2342939590     3.0886375386
 F      2.8494801592     0.5860899910     2.8092308172
 H      2.6024312748    -0.9975144267     3.1902293210
 F      2.4071040547    -1.8757696233     3.3674413033
