          4
Energy: -0.011117550902798744 Kcal/mole
 Ar    -4.9116121897    -5.0225467856     7.4640710236
 Ar    -2.5630061731     3.9338121476     2.9874254407
 Ar     3.7027739317     5.9514919785     6.2441937704
 Ar     4.0739660980    -6.2989450496    -2.8417843609
          4
Energy: -0.04265262244875726 Kcal/mole
 Ar     5.9439923910    -5.6333775513     0.5472366020
 Ar    -1.1735559540    -6.1620050942    -5.4826809556
 Ar     0.3746338078     4.1033388647     0.2833347799
 Ar    -4.4697746596    -1.8729506953    -3.2585166360
          4
Energy: -0.18328140716131192 Kcal/mole
 Ar    -3.2703004444    -2.4223331912     6.3912105233
 Ar    -4.8642526640    -7.2693568099     5.8386049432
 Ar     1.1029702061    -3.4730668005     4.5391251648
 Ar     5.7494633008     3.3042136767     1.5192838434
          4
Energy: -0.2350447270073544 Kcal/mole
 Ar     0.2946148600    -4.5777493212    -7.4104511699
 Ar     3.6528003631    -0.5262182524    -2.1692330799
 Ar     2.4069331677    -4.5778766429     4.4818461721
 Ar     0.2852990417    -0.2315692156    -3.3683450306
          4
Energy: -0.5406605157404227 Kcal/mole
 Ar     1.5364585443    -2.5550307138    -1.8215886927
 Ar    -4.4514048014     1.2657625446    -4.3784849171
 Ar     2.4316560784    -5.8630156016    -3.9678458351
 Ar    -0.3320731974    -7.0032254904    -1.2898558909
          4
Energy: -0.08351292473866452 Kcal/mole
 Ar    -6.3286569129    -0.9131244196     6.1931683944
 Ar    -1.2197810062    -2.5731695132     4.8502875187
 Ar     5.0157228690     6.9699013181    -3.1739425154
 Ar     2.7267157480     3.6199600055     1.2364987777
          4
Energy: -0.8923545728929323 Kcal/mole
 Ar     4.4297448543    -3.9126168388     5.3262404375
 Ar     0.9845923035    -2.1911194958     3.1218030780
 Ar     0.2267706315     0.8753279076     4.8323847153
 Ar     4.5491250701    -0.5681001933     3.0155098570
          4
Energy: -0.9572478475075545 Kcal/mole
 Ar     4.6048007293    -2.9574185936     2.2053046484
 Ar     6.3472242457    -6.4413075109     1.9594810692
 Ar     6.5686221989    -5.5727120902     5.4718319032
 Ar     7.3368606913    -3.4500426798    -0.8636777878
          4
Energy: -1.295082609060827 Kcal/mole
 Ar     5.7248518370    -4.6253973966     3.1707048362
 Ar     4.3226371119    -1.1616802959     3.1291957658
 Ar     4.5409117133    -2.8591124269     6.8610844991
 Ar     1.9531585914    -3.8663039265     4.3444876408
          4
Energy: -1.4033161807038204 Kcal/mole
 Ar     5.6105151871    -4.6332326992     3.3373992161
 Ar     4.3553761922    -1.0259904511     3.4114779253
 Ar     4.7324541781    -2.9745413388     6.6681116516
 Ar     1.9708744802    -3.9079310386     4.1984721753
