          4
Energy: -0.028782484950952418 Kcal/mole
 Ar     2.6738504751    -2.1020759227     6.1428583403
 Ar     7.2966199710    -4.8578010577     3.1799835788
 Ar    -2.3874724692    -3.9889881959    -7.2523691653
 Ar    -6.5394520248     0.0744942061     1.3872673794
          4
Energy: 0.05773793030535102 Kcal/mole
 Ar    -0.1661287664     0.7826601644    -0.2645681778
 Ar     3.8262800179    -2.8379311187     1.1139107445
 Ar    -5.4738925082    -7.1222463050     5.8874305633
 Ar     0.0863027266     2.2528171490    -3.2564141054
          4
Energy: -0.7083690239498901 Kcal/mole
 Ar     5.9509018729    -3.7317740301     0.1818081765
 Ar     5.1461980537    -2.3403071276     3.4637826631
 Ar     1.7581593571    -3.4417288368     1.7717253092
 Ar     5.6569670309    -1.8104638661    -4.1505840489
          4
Energy: -0.6334848054535336 Kcal/mole
 Ar    -6.9268903708     1.7374250661    -3.4449920499
 Ar    -1.0010626272    -5.5015072244     4.9376998473
 Ar    -6.6947909001    -1.6127372096    -0.7242926833
 Ar    -6.0108123244     1.9403392659     0.3890806018
          4
Energy: -0.48260840539181377 Kcal/mole
 Ar     4.8800896576    -6.4118228261     1.9141882726
 Ar    -0.5391939107    -7.0454674479     0.1340222980
 Ar    -3.7132822151    -3.7873108416    -2.6584461714
 Ar    -3.4724615665    -5.0719000398     1.6157195860
          4
Energy: -0.35849982816209575 Kcal/mole
 Ar     2.4499802821    -5.9880295342    -2.1273274973
 Ar     3.6257683484    -0.2518292563    -7.3797665980
 Ar     4.1040353976     2.3218621824    -3.7578951865
 Ar     7.3508200556     4.9029059329    -4.3890626579
          4
Energy: -1.0031405563489444 Kcal/mole
 Ar    -2.2677787703    -2.6559223508    -4.6540159365
 Ar    -0.3043262189    -6.8982954582    -3.7034315630
 Ar    -4.0166997358    -6.2491204579    -1.5442362784
 Ar    -4.0513893673    -6.1327104932    -5.3557502931
          4
Energy: -1.3058778642045137 Kcal/mole
 Ar    -6.6493930049    -5.2265392127     6.5672575440
 Ar    -6.6916618299    -5.4386656838     2.7461213248
 Ar    -4.5026614246    -3.0000929114     4.3836646995
 Ar    -3.4327717565    -6.7980855005     4.0972913165
          4
Energy: -1.285136518879978 Kcal/mole
 Ar    -3.6029781448    -0.5243982569     0.9440754477
 Ar    -3.5780760359     0.1091108386     4.5561335239
 Ar    -3.6170348404    -3.8717035764     3.2886614645
 Ar    -0.6375028200    -1.7753251920     3.2018935543
          4
Energy: -1.4032821212701392 Kcal/mole
 Ar    -3.5837141619    -0.6847593663     0.9355084500
 Ar    -3.6400409051     0.0521746670     4.6872638709
 Ar    -4.0126018819    -3.5304705983     3.4314592742
 Ar    -0.6466120878    -1.7545393253     3.1326354514
