          4
Energy: -0.18092574816880574 Kcal/mole
 Ar    -7.1753137934    -0.3535657343    -2.6624662052
 Ar    -3.3039417278     6.3503911882    -4.5452040148
 Ar    -4.0727505678     1.6494990358    -0.2306888132
 Ar     3.4923864388    -4.6707225026    -5.3936138326
          4
Energy: -0.09070235322158154 Kcal/mole
 Ar     6.2105851731    -3.2495040342    -6.1114929912
 Ar     4.7930332640    -6.4564587913    -1.5446292041
 Ar     0.4422229785     5.3887636417    -3.6547192294
 Ar    -0.6517476045    -7.2521846016    -1.2388584310
          4
Energy: -0.2402320611331612 Kcal/mole
 Ar    -4.7243694746     6.3119317919     7.2371454425
 Ar    -3.6113267726     6.3006656800     1.9274046812
 Ar    -3.7554275881     2.3186541348     0.2791231999
 Ar    -4.2865379605    -2.2476373434    -5.3250817254
          4
Energy: -0.23398464601571703 Kcal/mole
 Ar    -6.7939448003    -6.0078130997    -2.0020047605
 Ar     6.7356430059    -1.7897792052    -6.5176532329
 Ar    -5.5858417876     7.1793723925    -1.0874155003
 Ar     3.2569429226    -0.1860667845    -6.0035625196
          4
Energy: -0.19821315612430596 Kcal/mole
 Ar    -1.2963235522    -4.6733747526    -2.2892237505
 Ar    -0.5836240114    -0.8338666387    -0.1043262991
 Ar     6.7069768220    -4.8115117770    -3.0257154302
 Ar     4.5661263515     0.1987589849    -5.4253518674
          4
Energy: -0.012966437048360622 Kcal/mole
 Ar    -6.9846000861    -4.3893144480    -3.2467400091
 Ar     1.9952333335    -2.2814094360     2.9793370447
 Ar    -4.1668393578     3.6461589151    -3.9896347681
 Ar     6.0497609184     4.0618706390     1.4869694693
          4
Energy: -0.29061377791260856 Kcal/mole
 Ar     0.4384924423     3.4638384907     6.5742318691
 Ar    -1.8300045637    -3.5318949754     2.4622575374
 Ar    -5.8466196994    -3.1072098756     5.9430714245
 Ar    -6.6285906368    -2.1508495883     1.6435282536
          4
Energy: -0.9103303569233147 Kcal/mole
 Ar    -1.4513907237     5.3858808005     0.5579264784
 Ar    -1.4177030939     2.8546280048     3.4278498148
 Ar     0.3080863692     6.0358751909     4.2251744446
 Ar    -1.8740543545    -0.8682152180     2.0739207011
          4
Energy: -1.2954371905907864 Kcal/mole
 Ar     2.3369712579     6.5321235374    -2.2167561031
 Ar     4.2340347638     3.4818686621    -0.8971389326
 Ar     0.7832296904     2.6546475088    -2.4891334879
 Ar     1.0596854727     4.5757904878     0.5905673407
          4
Energy: -1.403222300634482 Kcal/mole
 Ar     2.4625858322     6.2840538411    -2.4016094996
 Ar     4.3232172896     3.3447191266    -0.8331159017
 Ar     1.1174255999     2.7468818580    -2.8206061435
 Ar     0.9674656362     4.4577511199     0.5849583992
