          18
Energy: -70.58233530642433 Kcal/mole
 H      2.0867121706    -0.5961880618    -2.5045490346
 F      1.5903087998    -0.4518375620    -3.2619364036
 H      3.3572270962    -3.4426713783    -3.9653330666
 F      3.2684862698    -3.4975487610    -3.0542883154
 H      2.9170984021    -1.7331736771    -0.7854480211
 F      3.0072805975    -0.9052794474    -1.1693064795
 H      3.6148011720    -4.9650119462    -2.3297843878
 F      3.8771520736    -5.7663560160    -1.9693559118
 H      4.8751483552    -4.6550025033     1.2364651424
 F      4.4931963595    -3.9448533172     1.6731455822
 H      3.3460519083    -3.4109145621     0.6435686526
 F      2.7833303201    -3.2104373531    -0.0521628349
 H      2.2467744836    -0.5482950912    -4.7699529781
 F      2.6631280485    -0.7264738085    -5.5673180474
 H      4.8372246678    -5.8799316001    -0.6203543078
 F      5.3287686811    -5.8287320296     0.1520782698
 H      3.1958691184    -2.2859330188    -5.6941466837
 F      3.4585806155    -3.1551233726    -5.5661630983
