          18
Energy: -70.58960662159292 Kcal/mole
 H      1.8327821469    -1.0672319355    -2.5926772821
 F      1.5842721751    -0.9625697392    -3.4691347075
 H      4.1555859910    -3.3867278984    -3.6492384240
 F      3.7731624813    -3.5812764578    -2.8388113038
 H      2.3873023266    -2.1314869457    -0.7090743696
 F      2.3513715942    -1.2773346701    -1.0407698211
 H      4.1191406862    -5.0757790790    -2.2110249307
 F      4.3895598378    -5.8853373925    -1.8757969196
 H      4.4577435848    -4.9912393994     1.5211340828
 F      3.9348738653    -4.3321389761     1.8859393575
 H      2.9204369419    -3.8506471548     0.6951429304
 F      2.4556802203    -3.6658772464    -0.0734598739
 H      2.7393933127    -0.6997263688    -4.6232868899
 F      3.4449745238    -0.6707672036    -5.2082702413
 H      4.9729637942    -6.0868292596    -0.3292320647
 F      5.2373475855    -6.0822290197     0.5488163671
 H      4.3390244951    -2.0667633756    -5.2371170061
 F      4.7337919278    -2.8788689687    -5.0773290853
