          18
Energy: -70.58225546021019 Kcal/mole
 H      4.0037196071    -0.8543828435    -2.3737862189
 F      3.5611713475    -0.3201312990    -2.9734655708
 H      1.6056627439    -3.3931894796    -2.8663464524
 F      1.9264768562    -3.4266245138    -2.0079471259
 H      4.2882480927    -2.3037626732    -0.6770663184
 F      4.7586235661    -1.8985491358    -1.3519277139
 H      1.2358556810    -4.4468180604    -0.8829540665
 F      0.8662131968    -5.0568757178    -0.3066875583
 H      3.6580475958    -5.6028664971     1.8234089804
 F      4.3506304446    -5.0109795434     1.9277537537
 H      3.8785330497    -3.6861117006     1.1059853801
 F      3.4877606938    -3.0434157517     0.5814590384
 H      3.1482363697    -0.9593599843    -4.4373374417
 F      2.8614866294    -1.4249294980    -5.1734818666
 H      1.7092178168    -5.9786216840     0.8017720885
 F      2.2638955876    -6.4100512538     1.3909156168
 H      1.7411765567    -2.5715492521    -4.8085853578
 F      1.1804580353    -3.1923103645    -4.4329001424
