          18
Energy: -3.2764866590302475 Kcal/mole
 H     -3.1315975818    -3.8763633833     2.5276912849
 F     -2.2145975818    -3.8763633833     2.5276912849
 H      1.3535731022    -0.8040910560    -0.3521106815
 F      1.5436240227    -0.8040910560    -1.2492002242
 H      2.6110128695     0.1650995703     3.8202255768
 F      3.0151432684     0.1650995703     4.6433705341
 H     -0.9624116427    -0.4155511596    -2.7882089839
 F     -1.5391716865    -1.1284584831    -2.7882089839
 H      0.7252833523     3.1405490623    -4.5162173046
 F     -0.0456972002     2.6440835673    -4.5162173046
 H     -1.4667387884     2.6617903210     3.3259316319
 F     -2.3815552288     2.7250349283     3.3259316319
 H      3.4018887753     4.2149205355     3.4642068026
 F      4.3188887753     4.2149205355     3.4642068026
 H     -2.9293515499     2.0551040405    -3.8685796674
 F     -3.7657346042     2.4310726380    -3.8685796674
 H      5.2068528615     2.3694930197     0.1729904270
 F      4.3640757577     2.3694930197    -0.1884175880
