          18
Energy: -70.56357562415953 Kcal/mole
 H      2.3033611032    -2.5613710595     0.6806859494
 F      1.6460669329    -2.4555286168     0.0500903968
 H     -1.9341573507    -1.4985626460     3.1895891915
 F     -1.4395062570    -1.3069249172     3.9375760072
 H      4.3238277901    -2.2684725797     1.7426084961
 F      3.5299778731    -2.7235899732     1.8022697693
 H      0.0956020172    -1.6081518433     3.5226355387
 F      0.9279031459    -1.8022863086     3.1902567779
 H      4.2761919380    -0.5741293873     4.4445263412
 F      5.0518118680    -0.2189656470     4.1081315704
 H      5.5412038793    -0.8520631092     2.6686555086
 F      5.6351073666    -1.2985257062     1.8732045142
 H      0.1333812241    -3.0488549392     0.3308450097
 F     -0.7095921217    -3.3625563699     0.5093845031
 H      2.1851609003    -1.5253790581     4.2455283672
 F      2.8422705139    -1.3018949916     4.8448203058
 H     -1.9197272912    -2.4670795045     1.2206606070
 F     -2.4970386459    -1.9449828653     1.7054447849
