          18
Energy: -70.55207125958621 Kcal/mole
 H      2.6494415326    -2.4122174350     0.1539267126
 F      3.2581453892    -2.0771733448    -0.4444996174
 H      4.7437551366    -1.3922043788     2.7023265234
 F      4.1745907831    -2.0706260633     2.9404125511
 H      1.9109547921    -3.5621588378     1.9117244282
 F      1.5853644868    -3.0043446999     1.2607840772
 H      4.4563061055    -2.8482242540     4.3910671551
 F      4.6288820524    -3.2112418308     5.2152787672
 H      1.8073241622    -5.2776454404     5.7566792826
 F      1.3246027276    -5.6648518585     5.0799664880
 H      2.0044234047    -5.0493050266     3.7297151638
 F      2.4891262089    -4.6041615443     3.0911233757
 H      3.9798071649    -0.5823625244    -0.3159084848
 F      4.4198100372     0.1945985677    -0.1070594155
 H      3.5327980311    -3.9525311079     6.2201201245
 F      2.8679391163    -4.3848432616     6.6805089006
 H      5.2872405372     0.0612753736     1.2956439257
 F      5.6505132615    -0.1724503727     2.1045284683
