          5
Energy: -2.9510315610290237E-4 Kcal/mole
 He    -1.3412860954     1.7282134402     5.6935754583
 He    -5.0252116097    -5.4850459167     4.8572986150
 He     3.1772799290    -5.5698439690     1.8053720517
 He    -5.9167740710    -2.8542568831    -6.1390510498
 He     3.4524466425    -6.7471196039    -6.0054529922
          5
Energy: -0.01784847640104352 Kcal/mole
 He    -2.1026533951     3.0067872345     6.2435773178
 He     2.0740353782    -6.8773547926     0.2386748695
 He     0.7952769313    -1.6366237952    -6.6435939910
 He    -0.9810162443    -3.9806398336    -5.5787245536
 He     0.4495921414     3.1409110769    -3.7938101767
          5
Energy: -0.0019301299196148515 Kcal/mole
 He     1.1050627986     0.5459435872     7.3987912304
 He    -0.6354963315    -4.6192406659    -3.5747792839
 He     0.7520905511    -1.5790027343     1.0334261403
 He     4.8592125209     7.0218211851     7.4786304885
 He     5.4235468448    -2.8045984456     5.2026198234
          5
Energy: -8.062926403828522E-4 Kcal/mole
 He    -2.3018236008    -2.4138016094    -3.6688593920
 He    -2.9239105120     2.7411701862     7.0016972649
 He    -2.5179765836     3.3139275048    -4.9238802026
 He    -0.7958158337    -6.1924944950     4.5851690689
 He     4.5154444903    -0.4622668665     4.3029015531
          5
Energy: -0.020165478457970454 Kcal/mole
 He    -3.0873310924    -4.4430260880    -3.5950224217
 He     2.6303424532     4.1883662749    -3.6520805841
 He     3.7303760104    -2.9688294616     3.2203900615
 He    -4.6286832980     6.9729231111    -5.7641404220
 He    -3.3854738949     4.7061281826    -6.8906502460
          5
Energy: -5.994899551607932E-4 Kcal/mole
 He    -3.9987980674    -6.4587693276     4.9041570219
 He     2.3115737561    -5.3033554666     6.9713784145
 He    -0.5975327773     3.4598014390     4.4337903248
 He     7.0336966232     6.4931028875     0.8417446822
 He     5.9310800835     5.1090975551    -5.5505406093
          5
Energy: -0.003234048150278065 Kcal/mole
 He    -0.4555526138     1.9171231178     6.2355216673
 He     7.4093849039    -5.8640503513    -4.1034637401
 He     3.9651149394    -5.2686260343     5.8218770997
 He     3.0757739857    -5.3620418392    -3.0203679885
 He     6.5534876406     0.5481392228     6.7823099460
          5
Energy: -0.010863582128536695 Kcal/mole
 He    -6.4964557600    -5.7851759099    -4.4609519968
 He    -3.3168620637     2.3618641162    -7.2780549576
 He     1.2647198869     5.9175077870    -4.5613539470
 He    -6.3267178393     1.8471571069     4.5692103923
 He    -5.1306638665    -3.2363419168    -6.4741864694
          5
Energy: -1.3631126629210194E-4 Kcal/mole
 He    -7.4258123052    -5.6719620975    -4.1181611676
 He     3.2242127712    -2.5501803133    -3.5755008500
 He    -5.0482998501     2.9035080661    -5.4979093376
 He     6.9646500659     3.9808636588     2.8356123274
 He    -7.0819353641    -4.5427846853     5.4994954982
          5
Energy: -0.18197007524937675 Kcal/mole
 He    -4.9741723192    -1.3078644924    -2.6504470168
 He    -3.3338875210    -1.3210367369    -5.0187230460
 He    -4.1317071648     1.1517367263    -3.8307454294
 He    -2.2474488162    -0.5154770448    -2.4797896426
 He    -2.8945867425    -3.2604935386    -2.9450181671
