          5
Energy: -0.18197770051651768 Kcal/mole
 He    -2.7235121350     0.6277979906     0.9014328738
 He     0.1270214706     0.4457937580     0.9759165081
 He    -1.4757570872    -1.0189908812     2.8864460066
 He    -1.3145335741     1.8356107448     3.0637697864
 He     0.9670126710     0.2189045393     3.6948327753
