          5
Energy: -0.022094725750425252 Kcal/mole
 He     5.4332713035     4.4317993131     0.3444819330
 He    -5.4987339137    -3.5043889927    -3.3367627871
 He    -1.4649140804    -5.0601266323    -4.3359759273
 He     2.5145541543     4.5076914406    -0.4349913390
 He     0.5399854768     0.8014518413     3.8814026430
          5
Energy: -0.011773262117655227 Kcal/mole
 He    -2.0198468654    -2.3984839521     2.6068934296
 He     7.4052301022    -6.3640066003    -3.2142702286
 He     1.4385632711    -4.2101993464    -4.5276052297
 He     2.4402580479     7.0990745624     4.7851195743
 He    -1.5442842007    -5.7224743911    -3.7117203264
          5
Energy: -0.002204632217300683 Kcal/mole
 He    -5.7771789242     3.3615540761    -5.3743320390
 He    -0.8611076046     0.2182138928     6.0398145129
 He     6.2962373793     3.2549829251    -6.8455187591
 He     1.8740874301    -1.8000461350    -4.6604719356
 He     6.6060026372    -1.5782956225    -3.2406373590
          5
Energy: -0.016013795040723405 Kcal/mole
 He    -0.9614139452    -3.8907068599     2.0398306413
 He    -0.7631663959    -5.6801391742     4.6714372178
 He    -6.2002406312     1.6534879192     2.3468410825
 He    -7.0584355902     0.6945995043    -4.4525559052
 He     7.2385378846    -6.9204895156    -2.1971597166
          5
Energy: -0.006151052591549781 Kcal/mole
 He    -2.1743198584    -0.0777739918    -1.3557040377
 He    -2.5346065111    -3.9385476035    -3.9940008924
 He     4.2087243648     3.9855388519    -1.3039696168
 He    -5.0592599356    -0.8386684938    -5.8035626861
 He     1.2707936337    -6.2366254754     6.6293557212
          5
Energy: -0.015405442193248537 Kcal/mole
 He     0.1619642644     2.6680572409    -4.9845044881
 He    -3.0168188811    -0.3654798782    -1.3730584580
 He     1.2478906848     1.9923361567     7.4851764360
 He     4.7745922600     5.5526531274    -5.8027290534
 He    -4.3360597636    -0.0638362605    -4.4234424910
          5
Energy: -0.005637858838958615 Kcal/mole
 He     2.8440980780    -2.4430679462     1.8509005365
 He    -4.1553371570     6.0641461507    -0.0589026057
 He    -5.3695595010    -5.7495426113     7.1314726204
 He     2.9848548578     0.1343450969     5.7464134873
 He     0.8923847502     3.4945694074     7.4221567571
          5
Energy: -0.00684292961008872 Kcal/mole
 He    -4.5945911979     2.6220754037    -1.5994940093
 He     1.0297006293    -0.4999778964     0.3151216313
 He    -5.6751075597    -2.5613874604     1.6141628985
 He     5.8672465124     3.8312991628    -0.9893522999
 He     2.2158541052    -3.7901803790     2.1048911158
          5
Energy: -0.021403436200139087 Kcal/mole
 He    -3.2642653205     6.7435112295     4.7738631720
 He    -1.2439654093    -1.6023625494    -1.4826870552
 He    -3.0140781076    -2.3224458517     0.7026122712
 He    -2.1405074756     5.9071997608    -0.2713865234
 He     4.1333156544     0.0308340736     4.0643507864
          5
Energy: -0.18197770051651768 Kcal/mole
 He    -2.7235121350     0.6277979906     0.9014328738
 He     0.1270214706     0.4457937580     0.9759165081
 He    -1.4757570872    -1.0189908812     2.8864460066
 He    -1.3145335741     1.8356107448     3.0637697864
 He     0.9670126710     0.2189045393     3.6948327753
