          5
Energy: -0.007429900605524663 Kcal/mole
 He     5.0211071251     3.4435743585     1.2202511736
 He     7.2721457396     0.5016943525    -4.6654013188
 He     2.3162712345    -7.3072391486     5.3450871088
 He     0.9477952416    -0.5707681686    -3.3169982771
 He     6.5969651508     4.5951044701    -2.3132175718
          5
Energy: -0.0021235529694196994 Kcal/mole
 He     6.2291845760    -0.6943910824    -6.1402268695
 He    -4.6413654519     5.2048436256    -1.6157654518
 He     4.8762018316     0.0887313862    -1.4876845839
 He    -1.2284923389    -1.2959599348     7.0931678063
 He    -3.8580158785     6.0236074668    -7.4581358917
          5
Energy: -0.009482366199221782 Kcal/mole
 He     0.9077299938    -1.1210150969    -5.3455083290
 He     1.0228740949     5.5903868047     7.4576992919
 He    -1.6577103689     6.8656799479    -6.9457309337
 He     1.6125136320    -4.2074003626    -3.6980779689
 He    -7.1642143309     5.7378762360    -0.1696743098
          5
Energy: -0.014671747782383395 Kcal/mole
 He     6.4467873216    -4.0393587242     7.4711191027
 He    -6.9459854574     5.4307072558     0.9767815528
 He     4.2519171917     5.8041412706     5.3290426744
 He     3.5890709773     3.9022407746     1.2624899135
 He     7.1873232659     7.3337333470     4.4961827175
          5
Energy: -0.01674671659409816 Kcal/mole
 He     2.0879013043    -6.5656188425    -4.5035870565
 He     5.4434800133     3.4016781822    -3.9437273617
 He     6.5587448768     5.3816789684    -5.4202441095
 He    -4.1910011076     1.4756840884     2.6474920964
 He     5.0800617999    -0.8667726205     6.8284646506
          5
Energy: 0.004498153665605926 Kcal/mole
 He     0.5140117381     0.2038511214    -7.1305794497
 He     1.7199008081     5.5129735776    -0.2757044487
 He    -6.6091986761     2.6289894357    -0.3025748636
 He    -1.2922991351    -1.5406484779    -7.4626648265
 He    -0.3766000148    -1.1942928777     7.2108990389
          5
Energy: -0.02287799796020671 Kcal/mole
 He    -6.5085873808     3.9955949571     5.3814339626
 He     1.9620231673    -3.8938664853     7.3161654916
 He    -0.6512819405    -7.2708469355     4.3075183275
 He    -0.6561495185    -4.8158117474     5.2540102891
 He     7.0724859297    -6.3914437438     0.0280903931
          5
Energy: -0.012010129628578585 Kcal/mole
 He     2.4455498100    -3.9575729443     6.9693089588
 He     5.5945813108     0.7381963143     0.9239303204
 He     6.8935661710     1.0488092287    -2.3917754321
 He    -2.5616351549    -4.0911861427    -6.1410994000
 He     4.8154124568    -3.5339313280    -1.7241335998
          5
Energy: -0.04407899279912174 Kcal/mole
 He     2.9760498358     4.4752693855     3.3965454886
 He     3.4743825653     5.9418146904     0.7892307167
 He     0.7824245037     6.1598547912     0.2786301731
 He    -3.1941843588    -7.2803763825     0.5207104856
 He     2.8583370850     4.9375839280    -3.9585508150
          5
Energy: -0.18203529114605185 Kcal/mole
 He     2.1814602315     4.2850847840     2.4477203830
 He     3.6358790446     6.1590675667     0.8382822743
 He     0.8708378589     5.6339130542     0.2810722657
 He     0.3069213486     2.8770666201     0.8044328139
 He     2.8631231509     3.6297557108    -0.2776794148
