          2
Energy: 0.09267903900171987 Kcal/mole
 Ne     1.2542867392     4.5508147968     1.3199819786
 Ne     3.8370376731     4.8928143655     1.9180415520
          2
Energy: -1.693311832725823E-4 Kcal/mole
 Ne    -2.8139347906     3.9985505326     1.4529437775
 Ne    -2.9162582519    -4.2955393593    -3.2514453644
          2
Energy: -8.045161436998878E-4 Kcal/mole
 Ne    -0.9416164435    -4.2944460809    -3.4930079187
 Ne     2.6714580713    -4.0920731474     2.9065307068
          2
Energy: -9.058099130682555E-6 Kcal/mole
 Ne    -6.5961782292    -1.5664112724     4.0699451077
 Ne     2.7712254685    -6.5280733633    -7.2886578056
          2
Energy: -8.46438353246245E-4 Kcal/mole
 Ne    -5.2681969800     2.3126338557     6.5654555394
 Ne     1.7637958817     4.1764191585     7.0308125810
          2
Energy: -0.001024029372010759 Kcal/mole
 Ne     3.9899702718    -0.9824432454    -3.3366938394
 Ne     7.4123337364     4.2578490324    -6.6056868058
          2
Energy: -0.005604138999445901 Kcal/mole
 Ne    -1.6100409346     3.2472777820    -3.1066676103
 Ne    -5.8343516469     2.8101275036     0.0706576922
          2
Energy: -0.04022631671399581 Kcal/mole
 Ne    -0.5534242076     4.3235974806    -2.0380680614
 Ne     0.3528706714     5.1167929199    -5.5467787349
          2
Energy: -0.04541793874658542 Kcal/mole
 Ne     3.7867620064     3.8916682476    -3.6875832826
 Ne     4.2580001991     3.1984538217    -7.2014845124
          2
Energy: -0.06899999994932228 Kcal/mole
 Ne     3.8807220995     4.0002224981    -3.8044895638
 Ne     4.9592669043     3.7197109112    -6.7191381723
