          2
Energy: -0.001488483452327815 Kcal/mole
 Ne    -4.0438532585     0.8542641623     4.7419973505
 Ne    -1.4475583458     3.3095509705    -0.8455940449
          2
Energy: -4.04859303683109E-4 Kcal/mole
 Ne    -5.9701850869     3.4026111552    -3.7329018441
 Ne    -1.6390067741    -2.9272663804    -0.7066278708
          2
Energy: -5.049788571009302E-6 Kcal/mole
 Ne    -2.5569449491    -6.9307084171    -5.7173120833
 Ne     4.2564568907     3.0741743135     6.3975957205
          2
Energy: -7.387465598694103E-4 Kcal/mole
 Ne    -0.1320669464     3.8191280618    -3.7393283553
 Ne    -5.1661179738    -1.6111351269    -2.8544632027
          2
Energy: -1.0943915557112561E-4 Kcal/mole
 Ne    -0.6728365193    -0.8734838027    -7.1067459716
 Ne     1.0748456253     3.7428574679     1.8831199898
          2
Energy: -0.031208124692563417 Kcal/mole
 Ne     3.9776564356    -1.6497678827    -0.7782944874
 Ne     3.7227951715     1.9596762407     0.6929058425
          2
Energy: -9.945436003537453E-5 Kcal/mole
 Ne     1.1636895110    -3.5612682081    -5.5354485082
 Ne     5.8023378566    -6.1426491559     3.4318110296
          2
Energy: -1.0767714698543116E-4 Kcal/mole
 Ne     0.0800636503     3.8506978747     3.1591395844
 Ne     0.2372826196    -3.6546431387    -3.8692800091
          2
Energy: -3.816322480837377E-6 Kcal/mole
 Ne     5.1923797619     7.4971232640    -7.3149253293
 Ne    -6.4230376457     4.5673109697     6.0450218263
          2
Energy: -0.06899999996317556 Kcal/mole
 Ne    -0.2972159089     5.4074702919    -1.4048978908
 Ne    -2.0812816909     4.5204358550     0.9966494122
