          2
Energy: -3.096145704439389E-5 Kcal/mole
 Ne     6.9052047536    -2.4833607282     0.5063295332
 Ne    -2.6779318341     5.2960664690     3.3140656718
          2
Energy: -5.002348475029667E-5 Kcal/mole
 Ne     7.2737288995     4.8042425096     4.8157145196
 Ne    -3.6218292471     2.6479333426     1.1835814211
          2
Energy: -1.2161495540623802E-5 Kcal/mole
 Ne     2.0282051908    -6.4834905757     0.4109082910
 Ne    -4.6815196515     6.1861348778    -3.2312318603
          2
Energy: -3.713778937539491E-4 Kcal/mole
 Ne    -0.1999963279    -6.2428447640     7.2559166904
 Ne     4.1687628784    -6.0260142971     0.1257617456
          2
Energy: -1.439976792687825E-5 Kcal/mole
 Ne    -5.4078216197    -7.1395599586    -0.1402927514
 Ne     6.9544185494    -0.9351146509    -4.0777265709
          2
Energy: -0.04485991671241824 Kcal/mole
 Ne     1.8607819229     5.3199499446    -2.6533061412
 Ne     4.9300689714     3.8829761855    -3.9329594672
          2
Energy: -2.657766077492209E-4 Kcal/mole
 Ne    -6.2658882973    -5.6797109152    -1.5116792621
 Ne    -1.6803457733     0.3292657525    -6.1054079050
          2
Energy: -3.29304644085519E-5 Kcal/mole
 Ne    -2.7163283585     5.4140605292     7.0580882867
 Ne    -5.1246672614     1.5814692258    -4.6248295620
          2
Energy: -0.0608037341552118 Kcal/mole
 Ne     1.1158831866     3.7719686714    -0.2287839135
 Ne     1.7048257187     1.2980555701     1.9490586870
          2
Energy: -0.06899999995812839 Kcal/mole
 Ne     1.0666574163     3.7265079946    -0.0012483066
 Ne     2.5469562631     1.5928875323     1.7289509067
