          6
Energy: -2.8765008285655544 Kcal/mole
 Ar     3.0631423792    -1.3992668614    -3.7004415325
 Ar     3.5226593868     0.3053324556    -0.3520237468
 Ar     3.1294555921    -2.2262437901     2.4640800743
 Ar     1.0081973430    -2.5823417951    -0.7089746777
 Ar     4.7330778905    -3.2741659674    -0.8144113272
 Ar     0.3272369163     0.2581454057     1.7249665599
