          6
Energy: -2.8765186887223755 Kcal/mole
 Ar     5.2812400398     1.3394961976    -1.6481134058
 Ar     4.4393235270     0.8705980941    -5.3064563366
 Ar     3.0370000640     4.0563901175    -0.1635755117
 Ar     4.1490784662     4.3284697930    -3.7992035618
 Ar     1.6593049824     1.6518469101    -2.8060409799
 Ar     6.6814697270     4.8241777911    -1.0007825136
