          6
Energy: -0.4035878745133958 Kcal/mole
 Ar    -7.3850078981    -3.1103500202     6.3283069591
 Ar    -5.2845147857     5.9414761208    -1.2262294677
 Ar    -6.2175896288    -6.5748987403     6.8482514533
 Ar    -6.9840172701     2.4193479393    -3.1480787393
 Ar     0.6391147798    -2.5629157665    -4.9673355886
 Ar     1.7848488903     6.0793944635    -4.2062098130
          6
Energy: -0.27070491114453016 Kcal/mole
 Ar    -1.6820528332     3.3736707285    -1.7132254494
 Ar    -1.1736564029    -0.0054794869     5.2367261281
 Ar     4.7254147344     2.4969546785    -2.9011166076
 Ar     2.4030427479    -4.5292381579     5.3690036889
 Ar    -1.1828204791    -4.7655500446    -7.0595479328
 Ar     0.5110764110    -0.5192415781     0.2400198602
          6
Energy: -1.3788867696082985 Kcal/mole
 Ar    -5.7657737657    -3.5784949853    -1.8295428649
 Ar     2.3179900723    -0.6331710069     4.7341795711
 Ar     4.9671546227    -2.3459006955     2.0507697688
 Ar     2.3890847167    -4.1951764162     3.6771319920
 Ar     6.2976279423    -4.6133571360     5.2514643603
 Ar     2.3346966604    -1.1974777422    -0.6621031790
          6
Energy: -1.3283300328414314 Kcal/mole
 Ar    -0.3477841701     0.6743176482     1.0865018107
 Ar     3.2399604819     3.0731223045     2.6033671094
 Ar    -4.2889005570     5.0086875700    -0.3870375937
 Ar     0.1522443848     2.7589408210     5.0904364539
 Ar     1.7062794026     2.2990713981    -2.0090048893
 Ar    -0.8988519349     5.3420902594     2.9291122111
          6
Energy: -0.6505483792866397 Kcal/mole
 Ar     7.1449748714     5.7003375201    -3.3521180987
 Ar     2.9997884738    -1.9975426022     2.6696717847
 Ar     7.1658364720     3.4974518199     3.1734008396
 Ar     7.2656384736    -1.7809495036     2.8416263462
 Ar     4.2938341421    -4.9591359035     5.2757413669
 Ar     7.2528382523    -0.3991038542    -0.2373703561
          6
Energy: -1.7969950820460063 Kcal/mole
 Ar     3.6749592259     1.3814809031     4.1132608636
 Ar     5.0595621046    -2.8064897215    -1.0435879105
 Ar     5.2845775850     0.6116641371     0.8609424835
 Ar     0.1044711841    -1.4508124727     4.3480940525
 Ar     3.7237419478    -2.7706396215     2.3247399507
 Ar     0.9388696140    -4.5494344557     0.3067562225
          6
Energy: -2.1721732618528002 Kcal/mole
 Ar     1.8953194211    -6.1406148425     0.9712778690
 Ar     4.0017059288    -3.1302562520     1.6902129860
 Ar     2.9528988209    -5.4212859549     4.9670207278
 Ar    -0.1731841153    -3.4521726891     0.8969721008
 Ar    -1.2616133147    -5.1545587366     4.5633578950
 Ar     0.9276076002    -1.7837593005     4.3535059429
          6
Energy: -2.5450669500678162 Kcal/mole
 Ar     1.8597529479    -3.5628287001     6.6398365630
 Ar     1.4779537515    -6.0419937587     3.5273498721
 Ar     2.8295059053    -2.4615917078     2.5892116192
 Ar    -2.0149155334    -5.8304386874     5.6842756839
 Ar    -0.8970392830    -2.5360831300     4.2407737027
 Ar    -0.3192733714    -4.0047780432     1.0292071825
          6
Energy: -2.7202293556527333 Kcal/mole
 Ar    -0.5542074547    -7.1853199562     5.3964598901
 Ar     2.8523952334    -6.9515300968     3.5189849893
 Ar     1.9563445812    -4.5052949686     6.4373598002
 Ar    -0.3510651040    -7.4455731926     1.5367910609
 Ar    -0.7399954487    -3.8841355603     3.4056228377
 Ar     1.9965961572    -4.3850778276     0.8033390980
          6
Energy: -2.876976846856473 Kcal/mole
 Ar    -0.5472763306    -7.1601474560     5.3999019848
 Ar     2.7125183381    -6.5058596073     3.5457746478
 Ar     1.8528598048    -4.4478252711     6.6164092673
 Ar    -0.4814938457    -7.2315838901     1.5818199662
 Ar    -0.1649732646    -3.9262750037     3.4399250071
 Ar     1.9669063938    -4.5404625343     0.3787595659
