          6
Energy: -0.07472056256270262 Kcal/mole
 Ar    -1.1259518444    -1.7830940323     1.9092436787
 Ar     4.9549466531    -3.9645200459     4.1980583391
 Ar     0.2956397979     4.6676188564    -4.2328733539
 Ar     4.9594282030     2.8348965436     3.0467068769
 Ar    -4.0930374661     4.4831053506     1.9282501192
 Ar     4.8942100816    -3.1548525512    -4.3008901710
