          6
Energy: -0.8157847347782664 Kcal/mole
 Ar     1.7167941188    -1.4246982839    -1.8141922793
 Ar     7.3081160495     1.4976182654    -6.0013678452
 Ar     2.0266549803    -5.0238267191    -1.1067728671
 Ar     1.8121003265    -1.3824231767     2.4375995289
 Ar     4.8352432316     4.3074426214    -5.3830510155
 Ar     0.4471528806    -0.2577930834    -7.0759217462
          6
Energy: -0.237882496641651 Kcal/mole
 Ar    -5.5351012487     1.1590068663    -6.9128004506
 Ar     1.0071975394     2.6300089092     1.4803342398
 Ar    -4.3999217298    -6.1075661310     2.4685429899
 Ar    -3.5439575210     3.5961900147     2.5425214160
 Ar    -5.5904441066     4.0237713139    -4.9254997241
 Ar     3.5170606507    -7.0838424511    -1.8522168430
          6
Energy: -1.2103052024464613 Kcal/mole
 Ar     0.9653595821     4.3900243210    -0.8030439346
 Ar     1.4893154839     2.7610975597    -4.8656634212
 Ar    -3.4459319933     4.3215367229     1.4497778880
 Ar     4.8321756063     3.6874784071    -6.3582999140
 Ar     3.2731682259     0.5937429277    -2.2286409321
 Ar     4.1484485188    -1.3619879548    -5.0195269379
          6
Energy: -0.8418852557849705 Kcal/mole
 Ar    -0.5889683159     5.2604061886     3.6494956819
 Ar     2.0534276104    -6.0041235422     3.6018103602
 Ar    -2.2852990996    -1.1210914499    -7.3032077659
 Ar    -4.2205185612     3.9147064250     2.7501703611
 Ar    -0.2043403082     2.5778395926     1.0996344910
 Ar     2.2552661715     0.1966050404    -0.9206897828
          6
Energy: -1.8895807968680212 Kcal/mole
 Ar     2.0496914504     1.6759583520     1.1126938003
 Ar    -1.7303905918     0.7113039397    -0.0070351443
 Ar    -4.6360962268     3.4269651105     2.3235554392
 Ar     3.4876996088     6.3618946059     1.7570730859
 Ar     0.2722084242     4.9355341310     0.0633611364
 Ar    -1.0927334839     3.3476517290     3.4845932577
          6
Energy: -2.3850040426834425 Kcal/mole
 Ar    -3.9864009893     5.3471209205    -4.3274071709
 Ar    -2.5829514648     1.3561713443    -1.9085313551
 Ar    -0.7725122424     7.3193192515    -2.7377174030
 Ar    -0.3337225425     3.6010597758    -3.6131035609
 Ar    -1.3627508498     6.5275782037    -6.7966821449
 Ar    -1.9614651843     4.7492996949    -0.2585131385
          6
Energy: -2.4429467171329695 Kcal/mole
 Ar    -0.0192838975    -0.1469760618    -1.8196078485
 Ar     0.9162297642     3.0187239471    -3.5900738954
 Ar    -0.0612997209     3.3383622403     0.2178625977
 Ar     2.6403634648     5.9725751245    -0.7694092486
 Ar    -2.6792432070     2.4235229923    -3.0844573423
 Ar     3.5813274929     2.1524737020    -0.0954678419
          6
Energy: -2.682768060684505 Kcal/mole
 Ar     3.8762333861     2.1874871423    -2.2879458409
 Ar     2.0119806333     3.2615086534    -5.7323828520
 Ar     2.0574783407     3.4634415399     0.7800639275
 Ar     2.7429239963     5.6156739566    -2.3691847176
 Ar     0.0533483967     2.9119783405    -2.4614546741
 Ar     5.6099588512     4.2159102885     0.1331056182
          6
Energy: -2.660753365442911 Kcal/mole
 Ar     5.5800888576     1.7289496385    -1.8985218999
 Ar     4.3471383532     1.2220461853    -5.6187022985
 Ar     2.5166813429     4.7355530761    -0.5212012936
 Ar     4.2675479862     4.4528204968    -3.8628095925
 Ar     1.9616165251     1.7786914838    -2.6346869839
 Ar     6.3465270897     5.0505887734    -0.4844271598
          6
Energy: -2.8765186887223755 Kcal/mole
 Ar     5.2812400398     1.3394961976    -1.6481134058
 Ar     4.4393235270     0.8705980941    -5.3064563366
 Ar     3.0370000640     4.0563901175    -0.1635755117
 Ar     4.1490784662     4.3284697930    -3.7992035618
 Ar     1.6593049824     1.6518469101    -2.8060409799
 Ar     6.6814697270     4.8241777911    -1.0007825136
