          6
Energy: -2.876976846856473 Kcal/mole
 Ar    -0.5472763306    -7.1601474560     5.3999019848
 Ar     2.7125183381    -6.5058596073     3.5457746478
 Ar     1.8528598048    -4.4478252711     6.6164092673
 Ar    -0.4814938457    -7.2315838901     1.5818199662
 Ar    -0.1649732646    -3.9262750037     3.4399250071
 Ar     1.9669063938    -4.5404625343     0.3787595659
