          2
Energy: -0.012043774731301887 Kcal/mole
 Kr     2.7900281291     2.0538529709     0.7663723790
 Kr     6.8436529367     4.4119805456    -5.5441953270
          2
Energy: -2.625618928381876E-4 Kcal/mole
 Kr    -1.2155685077    -5.4822415398     3.1508259338
 Kr     1.1257036842     6.0154202342    -6.0306606520
          2
Energy: -0.04192574193547124 Kcal/mole
 Kr     0.0371259305     3.6232104965     3.9511126763
 Kr     5.8547173789     1.5918377943     5.5244899065
          2
Energy: -0.31541352221657143 Kcal/mole
 Kr     1.8024895240     6.0278975672     7.2287356825
 Kr     4.1303674564     3.0777878970     5.7962197683
          2
Energy: -4.2121241221223886E-4 Kcal/mole
 Kr     5.6139667563     2.3913493496     5.6884737981
 Kr    -1.0962412044    -4.8502375960    -3.9107614856
          2
Energy: -2.1430282168497002E-4 Kcal/mole
 Kr     6.4871334479     1.5359695168    -5.9640876561
 Kr    -0.5877159427     6.3127732841     6.8677919383
          2
Energy: -0.09130541863757875 Kcal/mole
 Kr    -0.9533331873    -1.1401172143     1.0614669481
 Kr     0.3941953592    -6.3296866589     2.4673472019
          2
Energy: -0.2661546484032123 Kcal/mole
 Kr     6.9793543932     6.8606206596    -4.9341259706
 Kr     4.4623570337     3.2159823174    -4.8607740541
          2
Energy: -0.2991815564675635 Kcal/mole
 Kr    -1.4533192808    -6.6214614716    -4.5330401737
 Kr     2.2307050664    -5.4527389481    -6.3137847817
          2
Energy: -0.3169999999435124 Kcal/mole
 Kr    -1.2682585078    -7.0245314909    -4.7217369998
 Kr     1.9144774507    -5.7129100575    -6.8889551160
