          2
Energy: -0.023563291491136933 Kcal/mole
 Kr     2.1879775154     3.6718197926    -6.0877039098
 Kr     4.9973422514    -1.1610158256    -1.8427494609
          2
Energy: -0.026603066623073286 Kcal/mole
 Kr     4.9338832054     1.2360026508     3.8436192492
 Kr     6.4556004845     4.1224498139    -2.2084998018
          2
Energy: -2.0242527813910092E-4 Kcal/mole
 Kr    -3.1168751431     3.5069597341     5.4630057814
 Kr    -2.1822181134    -6.7356317212    -6.2118696318
          2
Energy: -0.10674663933106637 Kcal/mole
 Kr     1.7245821964    -1.5346106877     6.7375912097
 Kr    -0.4045357521     2.5913209852     4.0076531482
          2
Energy: -2.2659931470718738E-4 Kcal/mole
 Kr     2.9422176159     4.3448270699    -0.7820413698
 Kr    -6.9800428387    -5.4498293461     5.4440737683
          2
Energy: -0.31698942668004915 Kcal/mole
 Kr     4.8011713910     3.2120706634     1.7142532966
 Kr     6.5873493273     5.2538304273    -1.3221558034
          2
Energy: -0.3155786553202515 Kcal/mole
 Kr     6.4179268449     1.5194839186     4.1388640735
 Kr     5.9341672457    -0.8116119910     7.3831399381
          2
Energy: -0.2377474483977644 Kcal/mole
 Kr     0.3819732880    -0.4239868568     0.3092531256
 Kr     2.1752349805    -4.6224093705     0.3834666599
          2
Energy: -0.30820316266300324 Kcal/mole
 Kr    -0.4493298623     5.6299137072    -4.3804881084
 Kr     3.3850074494     7.1582785162    -3.6421066024
          2
Energy: -0.316999999832932 Kcal/mole
 Kr    -0.3920288086     5.8461299074    -4.5781864584
 Kr     3.5227606469     6.5164861828    -3.6995755155
