          20
Energy: -79.04034382168096 Kcal/mole
 H      1.1503408232    -3.5209073803     5.8389076689
 F      1.3392219490    -2.7650007843     6.3224551211
 H      0.5400711462    -4.2793101471     3.8886506120
 F      0.7059926764    -4.6464669059     4.7123950871
 H      0.7560667490     0.7220318633     5.2887926537
 F      0.8384962460     1.5644889822     5.6414403263
 H     -1.6076935683     1.5489540307     2.8195400474
 F     -0.9804129490     0.9358166687     3.0868799060
 H     -2.3302523647     3.5344964604     2.8683441502
 F     -2.6311051344     2.7681403013     2.4645188806
 H     -0.3896857696    -2.7228407091     2.5420194466
 F      0.2470335300    -3.3827028419     2.5343058677
 H     -1.3098458500    -0.6821618222     2.8194691545
 F     -1.5430962241    -1.5486509431     2.6305780052
 H      0.8311353534     2.9513875656     4.7407417852
 F      0.7796316581     3.7225902875     4.2473020918
 H      0.9384735552    -1.4965750873     5.3876990339
 F      0.6721547346    -0.8616642538     4.7820163452
 H     -0.6723214378     4.4565743480     3.9257273632
 F     -1.5228196694     4.7166057403     3.7022873643
