          20
Energy: -79.07837252020086 Kcal/mole
 H      1.0809594859    -3.4842439665     6.1835404225
 F      1.1609040021    -2.7352421964     6.7065071734
 H      0.8383408344    -4.2101031810     4.1467913542
 F      0.8604987240    -4.5939117819     4.9793110151
 H      0.5487862154     0.7783760999     5.6224050092
 F      0.5891144853     1.6400220799     5.9335783303
 H     -1.2816870171     1.5598359935     2.6562093111
 F     -0.7783564247     0.9491998196     3.1195350907
 H     -1.7716504436     3.5677742754     2.3472561153
 F     -2.0754106475     2.7979797596     1.9522432774
 H      0.1198182729    -2.6583297947     2.6504051330
 F      0.7791850317    -3.2831396223     2.7758529577
 H     -0.9604615787    -0.6687213169     2.7488997295
 F     -1.0867165233    -1.5383764103     2.4868907460
 H      0.8924630477     2.9006938176     4.9062074840
 F      1.0255095289     3.5993495460     4.3273570655
 H      0.7795501581    -1.4586388547     5.7666750399
 F      0.5475763733    -0.8226294664     5.1481532366
 H     -0.2488154516     4.4128230024     3.6516293755
 F     -1.0044767061     4.7282043514     3.2388344227
