          20
Energy: -79.06941839489485 Kcal/mole
 H      1.0503571932    -3.5175459023     6.1879348235
 F      1.1087780655    -2.7769212499     6.7254765671
 H      0.8700191594    -4.1913687904     4.1294152952
 F      0.8719998448    -4.5997106911     4.9504767844
 H      0.5860946800     0.7372688854     5.6186634298
 F      0.6646904590     1.5969867822     5.9278508185
 H     -1.2874322788     1.5584926289     2.7012772975
 F     -0.7744623917     0.9415873577     3.1453254719
 H     -1.8172143338     3.5665114654     2.4484187055
 F     -2.1041605589     2.8005462446     2.0338729970
 H      0.1608351475    -2.6197475578     2.6542395225
 F      0.8399076031    -3.2216167694     2.7865386234
 H     -0.9580623630    -0.6743184861     2.7486443003
 F     -1.0763252629    -1.5413139121     2.4743783386
 H      0.9113740828     2.8774474449     4.9108525639
 F      1.0103776096     3.5909988156     4.3434622723
 H      0.7348475421    -1.4975698654     5.7838805374
 F      0.5122161112    -0.8627929405     5.1606771182
 H     -0.2998294102     4.4071620753     3.7421138041
 F     -1.0744247555     4.7194692945     3.3634909682
