          20
Energy: -79.07641678156014 Kcal/mole
 H      1.0913400073    -3.4797030166     6.1796842102
 F      1.1666898754    -2.7291684255     6.7011333687
 H      0.8439919444    -4.2127563901     4.1460547210
 F      0.8773935776    -4.5933386376     4.9796796270
 H      0.5436472142     0.7752830640     5.6287148584
 F      0.5841957550     1.6348671601     5.9455113192
 H     -1.2722138640     1.5592413580     2.6470530198
 F     -0.7611680150     0.9534127823     3.1082393999
 H     -1.7720429990     3.5593902919     2.3431031053
 F     -2.0787454081     2.7905503661     1.9485048276
 H      0.1102374041    -2.6617653730     2.6477121301
 F      0.7656827480    -3.2910020006     2.7715736154
 H     -0.9526684454    -0.6636932291     2.7445528418
 F     -1.0868144106    -1.5328501034     2.4848218505
 H      0.8921724386     2.9001790872     4.9210026242
 F      1.0272125025     3.5996944644     4.3436540136
 H      0.7764398245    -1.4557860960     5.7612299192
 F      0.5406359699    -0.8199511329     5.1439783968
 H     -0.2449944547     4.4018875819     3.6532734227
 F     -0.9984704703     4.7150059126     3.2348002396
