          20
Energy: -79.02644208825737 Kcal/mole
 H      3.8635166804    -4.9885017117     2.0918158244
 F      3.7200192090    -5.1311786293     2.9862099058
 H      3.5042782135    -3.6185852227     0.4614025644
 F      3.8858126280    -4.4500755130     0.5242069244
 H      1.3247700690    -3.3176239901     5.2246376602
 F      1.0317723332    -3.3117598279     6.0935490126
 H     -1.4394681102    -1.6873667665     3.9549201635
 F     -0.5367561563    -1.7804525991     3.8232571234
 H     -3.0180287583    -1.3793952332     5.3017642058
 F     -2.9978277603    -1.5224232165     4.3962124869
 H      1.8434106891    -2.1024952412     0.8962594466
 F      2.7200962586    -2.1583424535     0.6332147716
 H      0.0094632438    -1.9843250699     2.2544025631
 F      0.2501000094    -2.0705840538     1.3737537485
 H      0.2997192953    -1.9901165963     6.7830065519
 F     -0.1493800090    -1.2823442179     7.1548359149
 H      2.5959919836    -4.0527330836     3.4965899527
 F      1.9626968696    -3.4128152631     3.6707493096
 H     -1.8027909544    -1.1770844856     7.0910736496
 F     -2.7011497054    -1.1658969995     6.9074561265
