          20
Energy: -2.586386993411722 Kcal/mole
 H     -2.2953932407     3.4636501568    -0.7702526027
 F     -1.3783932407     3.4636501568    -0.7702526027
 H     -2.8745031692    -3.8771670844     2.5672361022
 F     -2.1626503141    -3.8771670844     3.1452970961
 H      2.8291067619    -0.5916562201    -3.8666605420
 F      2.9560497079    -0.5916562201    -2.9584895843
 H      4.8069812157    -4.2323066071     2.0519976291
 F      5.7239812157    -4.2323066071     2.0519976291
 H     -0.1844785784    -3.8001878070    -4.0381511800
 F     -0.0209559982    -2.8978855484    -4.0381511800
 H     -4.0694181771     3.4646442869    -4.8043652181
 F     -3.4270196320     4.1190242295    -4.8043652181
 H      2.0068786508     3.5231328477     1.7983815803
 F      2.3189772565     4.3853877174     1.7983815803
 H      4.3667466842     0.7937354671     3.0120731567
 F      5.2837466842     0.7937354671     3.0120731567
 H      1.1705923755    -1.3260025808     1.8220824270
 F      2.0610392177    -1.1069285723     1.8220824270
 H     -3.7176357284     0.4226552173     0.2161590146
 F     -3.9073084381     1.3198248017     0.2161590146
