          20
Energy: -79.05072830735664 Kcal/mole
 H      1.5272988446    -4.4136426822     5.8916451760
 F      1.5692751069    -3.6488179645     6.3957980740
 H      1.3376943461    -5.1851244422     3.8862749327
 F      1.3757701661    -5.5663180142     4.7194199936
 H      1.0691245775    -0.1269780552     5.1710355401
 F      1.1828997570     0.7538391957     5.3993011288
 H     -0.9958636891     0.5129254094     2.3616593336
 F     -0.4543013599    -0.0834173220     2.7998083839
 H     -1.3756867586     2.5071893638     1.8980729961
 F     -1.8142582278     1.7371978312     1.6621554127
 H      0.5443795330    -3.6560084943     2.4056926374
 F      1.2386678423    -4.2423426337     2.5284322833
 H     -0.6121685113    -1.7257768777     2.4846235397
 F     -0.7188283533    -2.6057790342     2.2498707280
 H      1.5054938973     1.8673798348     4.2200899101
 F      1.6513193016     2.4834075861     3.5566641335
 H      1.1806779620    -2.3813584206     5.4416028403
 F      0.9497627341    -1.7528556315     4.8150636144
 H      0.4023455907     3.3264840661     2.8832378169
 F     -0.3570941023     3.6677329474     2.4989338309
