          20
Energy: -78.58499409105656 Kcal/mole
 H     -2.8733063437    -4.7783869748     1.8589716249
 F     -3.3320187180    -4.3782062659     1.1731674561
 H     -1.2316869485    -5.5020689995     3.1652828873
 F     -2.1053259834    -5.2410922493     3.2629300715
 H     -4.6394112095    -2.9252427999     3.8517748739
 F     -4.6072895869    -3.3052120171     4.6857296661
 H      3.1810658217    -4.7455880951     5.8145409095
 F      3.6970200328    -5.2940756759     5.2912421174
 H      1.1229509192    -4.1651382500     6.2730421045
 F      1.9523038072    -3.9342615177     6.5888881455
 H      0.9201713552    -6.3441771883     3.2988519751
 F      0.3170403014    -5.9461075190     2.7343500085
 H      2.7101827750    -6.4366865186     4.6436756864
 F      2.0344869544    -6.9715486625     4.3302324776
 H     -3.1456998280    -3.2466782918     5.4526414065
 F     -2.3108520130    -3.1761843005     5.8253996699
 H     -4.1043818651    -3.0661705809     1.7844860497
 F     -4.4750837008    -2.4078906691     2.3042328216
 H     -1.0170298451    -4.2029975964     5.6071223044
 F     -0.2501786066    -4.6988416780     5.5236547973
