          2
Energy: -0.001281349711654081 Kcal/mole
 He    -1.0817404172    -6.5051283774     3.2715455554
 He     0.7079249760    -1.8705694724     4.3175801785
          2
Energy: -3.9815325222996206E-4 Kcal/mole
 He    -5.1493105938     2.1721419343     7.0833827274
 He    -6.8232233145     2.5433782323     1.1452615100
          2
Energy: -8.836426270258809E-7 Kcal/mole
 He     5.4417846588     1.2274462130     1.7624949124
 He    -7.0007088343    -6.6764731530    -6.9590800999
          2
Energy: -0.010519901735522263 Kcal/mole
 He     3.4331224156     5.2342296864     2.9868332299
 He     5.0391301781     2.9207596448     0.9347718535
          2
Energy: -0.004177892506368792 Kcal/mole
 He    -5.5551774813    -4.2630531640    -1.8113839750
 He    -6.6190247840    -1.6021804767    -4.8010497224
          2
Energy: -4.238934501475054E-6 Kcal/mole
 He     3.5576529593     3.8197508696     7.1354964197
 He     7.1292419385     0.2169151462    -5.0382561627
          2
Energy: -4.3452721168580145E-5 Kcal/mole
 He    -4.6816096856    -3.1348725488     0.9585882117
 He     2.3436321922    -0.2686078312    -3.7835372872
          2
Energy: -2.8459140500282753E-6 Kcal/mole
 He    -7.2613511120     6.2108226786    -2.6931377414
 He    -0.3704648587    -5.9399236881    -4.5687051672
          2
Energy: -0.01840008467802641 Kcal/mole
 He    -6.8103046534     4.5061443908    -4.7935710587
 He    -4.5771055191     6.3788155051    -5.6312930361
          2
Energy: -0.01999999999701942 Kcal/mole
 He    -7.1348219031     5.0084067711    -5.1666381053
 He    -4.6395239381     6.3576127972    -5.5960273042
