          5
Energy: -0.6280498856875137 Kcal/mole
 Ne    -3.2481026675    -6.3617614753    -0.1087699554
 Ne    -5.1220773441    -6.3671536395     2.3934484343
 Ne    -6.3346120751    -6.5300293806    -0.4658497317
 Ne    -2.5804316071    -4.5485367446     2.3258249587
 Ne    -5.0228365220    -3.8792266324     0.5234761233
