          5
Energy: -0.06919793336797657 Kcal/mole
 Ne     3.5821658273     0.5863269632    -4.0941808266
 Ne     0.8992396620     1.7963938485    -4.9275245481
 Ne     1.2704257174     7.1992187230     1.7988687469
 Ne    -6.5900577130     2.5585332971     5.7856819383
 Ne     1.2044807818    -4.4654949864     2.3377132579
          5
Energy: -0.06291892301859967 Kcal/mole
 Ne     5.3821424967     3.7722935661     6.1218681864
 Ne     3.2431299080     4.9929871984     3.8914029868
 Ne     7.4691934997    -6.7748192094    -0.7783854935
 Ne     1.2256684485    -5.1418078252     4.4179554331
 Ne    -5.1984595316     0.7008799839    -6.8321926751
          5
Energy: -0.11613477502418884 Kcal/mole
 Ne    -2.7370856750    -4.6896043046     0.4851421097
 Ne    -5.3272215700     4.2982659127     1.8796225887
 Ne     2.6628062964    -1.4520791878    -2.4192054534
 Ne     3.7614850564     1.0311324430    -4.7136120601
 Ne    -0.4671082759    -5.9768210305    -0.9519201865
          5
Energy: -0.06590000840285994 Kcal/mole
 Ne    -6.7811135114     7.3188186410    -0.5978875148
 Ne     6.9760711181    -1.0748385527    -3.3933771841
 Ne    -1.7009487102     3.5052267246     2.1315566317
 Ne     6.4518969742    -3.7252678804     1.9310086631
 Ne     5.1069246524    -0.8452694296     3.0305787339
          5
Energy: -0.07905570714759565 Kcal/mole
 Ne    -7.4304148353     1.7552086592     6.3755505830
 Ne     3.0832409715    -6.2116458972     2.3425416444
 Ne     7.3481920158    -5.0947112144     2.2785532067
 Ne    -6.6645627223    -0.2962779209     3.8780668215
 Ne    -0.3819761729    -1.5055763525    -4.3846101607
          5
Energy: -0.005534631569072166 Kcal/mole
 Ne     1.8229150234    -3.3739336469    -6.2680972740
 Ne    -6.7455373574    -1.4782073887     5.0255033876
 Ne     6.7594331591     6.8591505073    -6.9611274461
 Ne     7.4819166738    -2.4304450738    -0.0158487419
 Ne    -3.8583873745     2.4030548772     7.4304630880
          5
Energy: -0.007664999498308328 Kcal/mole
 Ne    -1.5197601397     2.1168775809     4.6084535114
 Ne     4.3113504312     1.5441263860    -4.4378273381
 Ne    -6.1099505535    -6.1708326367    -2.3757910309
 Ne    -2.0868719403    -1.0899848659     0.3840488854
 Ne     5.0572753005     6.9069306564     2.6905211263
          5
Energy: -0.07078576155815908 Kcal/mole
 Ne     6.2728973734    -2.2262324555     1.0353828853
 Ne     0.5570111241    -4.1648784251    -5.8960635783
 Ne     5.3665387397    -1.9185690566    -6.9116202182
 Ne     0.3744371882     3.1943680425     2.5031047356
 Ne     6.8077040276    -0.5563818376    -1.8551800847
          5
Energy: -0.43339193316515073 Kcal/mole
 Ne     1.4873402447     3.4707523600     4.2270727560
 Ne    -1.6706055047     4.4556173615     1.1873026233
 Ne    -3.0273683495     2.0541018858     2.4459683496
 Ne     0.0784373165     2.2063336656     2.0976541593
 Ne    -2.0407533285     2.1748363200    -0.6702665510
          5
Energy: -0.6279463012923854 Kcal/mole
 Ne     0.1576622381     3.8224812597     3.9315162213
 Ne    -1.0176756952     4.7189671777     1.1925106254
 Ne    -2.5035123339     2.5561398965     2.8968449633
 Ne     0.2189757900     1.8791710329     1.4841434956
 Ne    -2.3562607020     2.2747570563    -0.2109814401
