          5
Energy: -0.2760805771930632 Kcal/mole
 Ne     5.1706328591    -4.4194453503     5.0384546427
 Ne     7.4974355154    -5.9498884581     6.4466845653
 Ne    -3.1666482676     3.0397881148    -4.6629300916
 Ne    -2.1037059468     4.0499128486    -1.9055538179
 Ne    -3.9009271226     1.5028103204    -2.0483313944
