          5
Energy: -0.01023187589041919 Kcal/mole
 Ne     2.9867451416     1.6810161456     2.6244407791
 Ne    -3.6999924020     1.5433616196     0.3790060868
 Ne     4.7618748509     3.3119428686    -3.1982515235
 Ne    -4.9303133248    -1.6864924226    -4.1352701068
 Ne     4.9565880006    -2.5737813446    -4.5544045837
