          3
Energy: -0.003944335115119707 Kcal/mole
 Kr    -7.9426135400     3.8225199069    -6.8206876663
 Kr    -0.4602435179    -1.7589031885     6.2114576221
 Kr     3.0713739089     1.2191441948    -2.6754483296
          3
Energy: -0.3268970069296467 Kcal/mole
 Kr     0.9446884410    -3.7100381775    -5.1015867967
 Kr    -2.4782182329    -0.9681836088    -4.6121553295
 Kr    -4.9441037363    -2.5591839449    -2.4674446848
          3
Energy: -0.021074757692559103 Kcal/mole
 Kr     2.9678678725    -1.4368311222    -4.6301018417
 Kr    -7.9103548936     0.0508418846    -7.9457366688
 Kr     6.7976807718    -5.7040805540    -0.2184279507
          3
Energy: -0.5443272366645233 Kcal/mole
 Kr    -3.6792294948     0.6226224609     4.0469464144
 Kr    -0.1234376252     1.1096957830     2.1752615639
 Kr    -0.4982743667    -0.4298460606    -2.2710886649
          3
Energy: -0.7634794309740556 Kcal/mole
 Kr    -0.1795683964    -6.7527662706    -0.6977175119
 Kr    -3.7884818537    -5.7426428773    -1.0690658297
 Kr    -1.5079424998    -3.2895790566    -3.0026307612
          3
Energy: -0.6125026214673386 Kcal/mole
 Kr    -5.0061754329    -4.3193792141     3.3925747963
 Kr    -2.8785956383    -0.5668717953     3.2562185377
 Kr    -3.7600186713     3.1013064330     1.4778378013
          3
Energy: -0.924711865666261 Kcal/mole
 Kr    -0.4923852580    -3.6510339012     0.9959310355
 Kr     2.8720770493    -5.9651265376     2.1605842243
 Kr     0.8785156805    -3.5136922412     4.8956388415
          3
Energy: -0.8286054855772428 Kcal/mole
 Kr     0.5731100627    -6.4776238236     0.8411844085
 Kr     5.1895288311    -7.2243772727    -0.1277337733
 Kr     3.2552469111    -3.6500708079    -0.4671520994
          3
Energy: -0.9413118876305846 Kcal/mole
 Kr     5.2663559060    -5.8610323645     0.2830272414
 Kr     2.4056862686    -5.9520538148     3.2798157308
 Kr     1.8984541905    -3.6439544599    -0.1560006144
          3
Energy: -0.9509981956247686 Kcal/mole
 Kr     5.2216877440    -5.7126968505     0.3480522757
 Kr     2.1315290453    -6.4452182831     2.8910810617
 Kr     1.7792480592    -3.5646789829     0.0410211567
