          3
Energy: -0.005595966446728331 Kcal/mole
 Kr     2.9708592195    -5.7395410163     6.6214413657
 Kr    -2.8170483213     3.4666294765     5.7279262946
 Kr     6.3100833713     6.9017558135     5.9330243897
          3
Energy: -0.003753313826053991 Kcal/mole
 Kr     0.9054525287    -3.7137336372     4.1474419029
 Kr     4.9099541582    -5.8247266176    -7.3816211980
 Kr     2.4514624446     4.1452330991    -5.3956389687
          3
Energy: -0.005234307010052285 Kcal/mole
 Kr     4.0763195651    -4.1158828810    -5.2095912554
 Kr     5.1901587635    -2.1203034614     3.6859742827
 Kr    -3.5268598577     7.8886986674    -6.6065654858
          3
Energy: -0.001364656472905717 Kcal/mole
 Kr    -4.2995466680     6.4985045262    -7.9612279821
 Kr     8.0387612858     4.2161681021    -3.0846423498
 Kr     5.0465068733    -7.7794668553    -2.3926995408
          3
Energy: -0.02051231351661426 Kcal/mole
 Kr     2.6765098042     1.6083788887    -5.2524459792
 Kr    -1.2440635165    -7.1347167524     2.6852964910
 Kr    -3.7099207343    -0.1709843089     2.7137197945
          3
Energy: -0.3253507722318522 Kcal/mole
 Kr    -1.6329960921    -4.9035886688     2.5738631360
 Kr    -1.7447999324    -6.5682572281    -7.6806097261
 Kr    -2.5830432971    -2.4833232656    -0.4793712962
          3
Energy: -0.5718894116223187 Kcal/mole
 Kr     2.1242652656    -0.4582491424     3.4625353638
 Kr     4.1631164428    -0.9453965147    -0.1783601861
 Kr     6.6783573482    -4.5734056335    -1.0790098351
          3
Energy: -0.8513882339490646 Kcal/mole
 Kr    -0.0684991666     0.4138284637    -1.6741880697
 Kr    -1.0581010132     2.5618787589     2.1043255472
 Kr    -3.2160407584    -0.5087899028     0.3723962542
          3
Energy: -0.9312075650891842 Kcal/mole
 Kr    -5.1723645755     0.4368774711    -2.4391529153
 Kr    -5.2934544710     0.4664055619     1.7606233780
 Kr    -1.7836095517    -0.3927690151    -0.3808073589
          3
Energy: -0.9509956151013015 Kcal/mole
 Kr    -5.2614493770     0.5509269619    -2.3128848169
 Kr    -4.9936742086     0.6905093027     1.7456889144
 Kr    -1.8413244772    -0.6333183149    -0.4554227892
