          3
Energy: -8.938706435304374E-4 Kcal/mole
 Kr     7.6645033493    -5.9649874821     2.1413259644
 Kr    -4.3977315559     7.0598650118     2.6249066313
 Kr    -0.0484901873    -4.7484407840    -7.9807844060
          3
Energy: -0.11660173852831518 Kcal/mole
 Kr    -5.0093097242     3.0409336087     5.7324703218
 Kr     2.1436275791     1.3151188317    -2.1372163754
 Kr    -7.8267074268     2.3754521019     1.2553359128
          3
Energy: -0.044334700074390734 Kcal/mole
 Kr     2.9686343335     7.2538025216    -5.7406574246
 Kr    -2.1665187511     3.7204149867    -4.6984410950
 Kr     0.9914500872    -4.5499369228     4.4817055515
          3
Energy: -0.5265883596725366 Kcal/mole
 Kr     5.0466002913    -3.1252414209    -1.1289416655
 Kr     3.0607249332    -6.6544217844    -0.1143986541
 Kr     5.5629418557    -3.3820202898     3.9304728470
          3
Energy: -0.2354235649243502 Kcal/mole
 Kr     4.3800342628     6.8962276809    -4.8334906272
 Kr     3.1245624410    -3.2533051339     2.5244782967
 Kr     2.4648936325    -4.0853073958    -1.9374509911
          3
Energy: -0.017059011975588224 Kcal/mole
 Kr    -2.9294938813     0.2447558018     4.3437824095
 Kr    -5.9941827214     6.7898429091     1.7820611444
 Kr    -0.4606951747     4.9521175848    -6.8183628621
          3
Energy: -0.8391712802370106 Kcal/mole
 Kr     2.7359756034     3.6971291647     0.6691165936
 Kr    -0.9265395872     2.0506676002     0.7364794295
 Kr    -0.3069277383     3.9588374449    -2.8975624268
          3
Energy: -0.9304908101386833 Kcal/mole
 Kr     3.2415247291     3.5765913977     1.3808586816
 Kr     7.0831640970     2.9371199092     2.4432324778
 Kr     5.7969121514     6.5096814530     0.8757645936
          3
Energy: -0.9188437155548627 Kcal/mole
 Kr     0.6063756570     5.7064224416    -0.4854010869
 Kr     4.4170601855     4.0539675233    -0.5305408395
 Kr     4.0198158912     7.8788588044    -1.1686950123
          3
Energy: -0.9509956566209354 Kcal/mole
 Kr     0.8356604769     5.9506834987     0.3657614418
 Kr     4.2859895182     3.9827115458    -0.5199383845
 Kr     4.0226500020     7.9979816365    -1.1211689565
