          3
Energy: -0.0240853644021172 Kcal/mole
 Kr     1.1274457677    -6.3731063433     5.0700544844
 Kr     7.4465454046    -6.9470255736    -0.4842397219
 Kr    -2.8087352750    -0.3550258439     2.8026187050
          3
Energy: -0.360150728795007 Kcal/mole
 Kr     4.0511988484     4.4193872190     3.8775085172
 Kr     1.4740876283     4.0309286180     0.6219469188
 Kr    -2.4068788262     6.1602834141    -3.7805247677
          3
Energy: -0.022488026886314884 Kcal/mole
 Kr     0.2070448232    -2.4191437099     3.1530477668
 Kr     2.8639356117    -5.6789465389    -3.6423623305
 Kr     2.1499206418     0.9062055452    -8.1905773008
          3
Energy: -0.13322110996648687 Kcal/mole
 Kr    -7.5044918769     1.5002904010     2.9729966410
 Kr    -5.3935736117     6.9557142291    -1.9230712177
 Kr    -7.1291814525     4.0465355752    -6.0195126767
          3
Energy: -0.4649111891690518 Kcal/mole
 Kr    -2.5716878859    -2.9806931447     1.5085305232
 Kr    -0.3835590053     0.4049355214     4.3179522724
 Kr     2.4317227468    -0.3836199296     1.9365633158
          3
Energy: -0.787533953498202 Kcal/mole
 Kr     1.0145399291    -2.6906091850    -1.8661183472
 Kr    -1.1134965939    -4.9890551530     0.6539839783
 Kr    -2.9776045164    -1.1519901589    -1.7118973565
          3
Energy: -0.5120283506893079 Kcal/mole
 Kr    -3.0595855074    -3.6828999858    -3.4579055064
 Kr    -2.9525839326    -7.6549070265    -6.0689682423
 Kr    -1.1276228261    -2.2141414319    -7.2815224435
          3
Energy: -0.9078785338591766 Kcal/mole
 Kr     1.1042657979    -3.2412248976    -3.3656394391
 Kr     0.7361836997    -2.2056473784    -7.5352894429
 Kr    -0.6627909300    -5.7118329557    -6.2663358608
          3
Energy: -0.9318517767972109 Kcal/mole
 Kr     6.0920936831    -8.1657934091    -5.6040995335
 Kr     3.5230897892    -6.3840475095    -2.9197605857
 Kr     7.5659003898    -5.4176874714    -3.1801818415
          3
Energy: -0.9509955841891505 Kcal/mole
 Kr     5.9131684035    -8.0202958769    -5.7439026031
 Kr     3.4537016491    -6.5206935614    -2.8732228670
 Kr     7.4676559418    -5.9228728514    -2.6225707253
