          5
Energy: -0.6280361460646781 Kcal/mole
 Ne     1.5962048638     2.9016248818     0.1879611687
 Ne     0.1082855788     0.4908492786    -4.0028280428
 Ne    -0.7139247112     1.2903195105    -1.1124109461
 Ne     2.2696767194     0.5883519470    -1.7657228679
 Ne     1.0230953505     3.2358915499    -2.8526690885
