          5
Energy: -0.08125269973499513 Kcal/mole
 Ne    -1.3456360997    -3.0690024759    -2.0573064784
 Ne     6.9333429129     5.2023831484     3.5831001473
 Ne    -2.5051127612     2.1618328392    -3.7625221272
 Ne     6.4878254059    -1.5088657386     3.6108699866
 Ne     0.1904483695     1.3188848517    -2.7525680152
          5
Energy: -0.010795745037130586 Kcal/mole
 Ne     2.8337006953    -2.2676291351     0.8063302753
 Ne    -6.4691388982     2.4221142338    -2.9606174960
 Ne     3.8696486175    -0.3534210401     5.3913715345
 Ne    -1.3791996157     0.2128122008    -5.8678926241
 Ne     7.2207306624     2.3666005427    -3.6655536171
          5
Energy: -0.07598328419834309 Kcal/mole
 Ne     6.5109479664     0.3892422180     6.2447004627
 Ne     5.2366052635    -2.8310157245     7.0626346395
 Ne    -1.8819733330    -5.3290064486    -7.3292544283
 Ne    -1.3586989641    -3.0572533472    -4.0691880304
 Ne     7.3506773317     3.3984569147    -6.8863649854
          5
Energy: -0.002476720220214612 Kcal/mole
 Ne    -5.8366724739    -7.1442488305    -5.0345015470
 Ne    -6.7973002040     5.2337604664     2.0955829563
 Ne    -5.7985503712    -0.5989710980    -2.0586138219
 Ne    -0.1724677912    -4.0187568161     4.2971912415
 Ne     1.9688417569     3.3488128404    -5.1177460973
          5
Energy: -0.1276160247556416 Kcal/mole
 Ne     2.9387738953    -2.7771277559     2.5370240170
 Ne    -2.4772978506     0.9748455714     6.6152251701
 Ne     3.4698948069    -6.0590049118     5.4467122418
 Ne    -0.0083785283    -2.2438572116    -3.4201894550
 Ne     2.6727550138    -3.0148297646     6.2120112589
          5
Energy: -0.01330684127589793 Kcal/mole
 Ne    -3.5151920813    -5.1949582377    -0.6120364144
 Ne     5.5913692931     0.0198922420    -3.6346399750
 Ne     6.4554500523     4.6216251586    -4.3255982982
 Ne    -3.7361598124     5.9886025637     5.0715896734
 Ne    -2.7583514992    -1.0659902618    -5.4273655541
          5
Energy: -0.005133994938823376 Kcal/mole
 Ne     0.6403918959     1.2014271509     7.1491752981
 Ne     5.0276994123     2.7256091085     1.2003715075
 Ne     3.9424816184     0.4090184083     6.8747335982
 Ne    -1.5403639540    -0.1548649675     6.3975463906
 Ne     4.6837563820     4.6251582907     5.7339204954
          5
Energy: -0.04863042756919293 Kcal/mole
 Ne     1.2953223104    -6.6657627160    -6.7166494917
 Ne    -1.5395805864     4.3415589714     6.3409608749
 Ne     1.5339100253    -4.9520150110    -3.5472292445
 Ne    -5.0882751627    -2.6712464021     0.9517389647
 Ne    -3.2617741976    -6.4329373574     5.5030413062
          5
Energy: -0.5026496008087293 Kcal/mole
 Ne    -2.6137133221    -1.1185699808    -4.7425084181
 Ne    -1.0594525264     1.6274958466    -4.5921381895
 Ne     0.6484450553    -1.0356413714    -3.9108331186
 Ne    -3.0990363363     1.4023532750    -6.8747709701
 Ne    -3.9138330095     2.1583092096    -4.0840848166
          5
Energy: -0.6280530080543238 Kcal/mole
 Ne    -2.7739263696    -0.8723795897    -4.7408981364
 Ne    -0.7663158852     1.5029595965    -5.0369217773
 Ne    -1.6356251114     0.5318415275    -2.2097462969
 Ne    -3.1633399219     1.2580262451    -6.9832241820
 Ne    -3.6723982760     2.0377138048    -4.0090046741
