          5
Energy: -0.6278896838517316 Kcal/mole
 Ne     0.6862860140    -3.8730088681    -1.1095316798
 Ne    -2.3508398357    -3.3032506723    -0.7925401517
 Ne    -1.0295471283    -5.6554600598     0.7892968073
 Ne     1.2082118525    -6.9317142260    -0.9698225003
 Ne    -1.4064101737    -5.8535154361    -2.2867749232
