          5
Energy: -0.0582567382884035 Kcal/mole
 Ne     6.2867997891    -0.6993761096     6.5888946748
 Ne     4.1035970654     0.6996748206     5.2024211601
 Ne     7.4497818831    -1.2789754595    -1.1827515630
 Ne     6.5125486724     3.4057975475    -7.3606015211
 Ne    -4.7348570344     7.4711092839    -6.2028338431
          5
Energy: -0.018674203419016554 Kcal/mole
 Ne    -1.8623965677    -0.2899154792    -6.5316284070
 Ne     1.5301440219     3.3305584088     6.6977833885
 Ne     4.4193818912    -0.1199249329     6.6084375565
 Ne    -6.9015545089     4.2596344811    -7.1049485251
 Ne    -7.3472781778     7.2968258313    -1.9770035238
          5
Energy: -0.004948438993535212 Kcal/mole
 Ne     1.4911386804     6.0580308046    -1.3235862266
 Ne     0.5053963842    -1.9429474775    -0.2087557639
 Ne    -5.0627312762    -1.2735959324     5.3229173408
 Ne    -6.8439976602    -0.2726964617    -1.3444947259
 Ne     0.7334546885    -7.0976182351    -3.9073191030
          5
Energy: -0.00991022333212514 Kcal/mole
 Ne     3.6927805335    -2.4864518224    -2.3799320790
 Ne    -2.8711694906    -3.9105708838    -3.5348200693
 Ne    -6.3023162665    -1.5438587066     0.2442098488
 Ne     3.3160166688     4.4625170940    -0.8108407946
 Ne    -6.6843045613     3.2658420508     3.4665632712
          5
Energy: -0.020434663224577834 Kcal/mole
 Ne     0.6348155816     5.7202121900    -4.8515032548
 Ne    -7.3331298655     3.4975547712     3.6310704010
 Ne    -3.9658229357    -5.0389387655     6.4539732377
 Ne     5.2096623273    -0.7820440633     7.2740796176
 Ne    -1.2796223329     3.1966380065    -1.9982131139
          5
Energy: -0.003950772743223834 Kcal/mole
 Ne     2.8116814595    -7.1164334628    -4.3269314888
 Ne     1.1934019491     3.0938863489    -3.8481676302
 Ne    -3.4141774157    -0.5778672990    -2.2581099498
 Ne     4.6718087923     1.5035256192     5.2492431024
 Ne    -5.0543537220     6.6637396124     0.3145500098
          5
Energy: -0.07235312242070537 Kcal/mole
 Ne    -1.4728460267    -4.6398592341     2.9495086442
 Ne     0.3641803511    -0.1270303863    -2.3999979898
 Ne    -2.2621083248     1.6601922470     2.1325150329
 Ne    -6.1056407673    -5.0886078319     2.0335843082
 Ne     2.0143535433    -2.3381835168    -4.5206307736
          5
Energy: -0.005950135194385914 Kcal/mole
 Ne     3.7841763144    -1.8239595300     4.7294798734
 Ne     0.9045096251     1.1018756669    -4.8140067768
 Ne    -2.5723834976    -1.9226627005     1.7203515921
 Ne    -4.0455478412     4.1668122092     4.5417496624
 Ne    -3.3571121289     5.1451479972    -6.0331847201
          5
Energy: -0.06483681112366535 Kcal/mole
 Ne    -3.9177759492    -4.7128516600     0.7584625327
 Ne    -1.9630451097     5.3855708949    -1.0520914326
 Ne    -2.5844061158    -6.8720584672    -4.8692055767
 Ne    -6.1583296163    -5.6091995197    -1.7422707723
 Ne     5.8775556069    -4.0892832446     2.1256858020
          5
Energy: -0.6279562366322531 Kcal/mole
 Ne    -2.7199677416    -3.9398760182    -0.8680374654
 Ne    -3.3020020674    -1.0403676500     0.1136327016
 Ne    -3.4588843604    -4.1625927702    -3.8913386481
 Ne    -5.1606935045    -2.3707614455    -1.9901888016
 Ne    -2.2834451005    -1.4912925130    -2.7861521969
