          5
Energy: -0.005129707995390545 Kcal/mole
 Ne    -0.4870241828    -4.4275702382    -4.9324112684
 Ne    -4.4191658470    -2.5305238659     3.7451173933
 Ne     2.0975660878     0.8590203655     2.9261781220
 Ne    -0.3572108904     4.5026451611    -4.0629376974
 Ne     4.2261814957    -4.6234294221     3.6347024458
