          2
Energy: -1.357991829664083E-4 Kcal/mole
 Ne     5.8891231694     7.4349809737    -1.4976960960
 Ne     3.1431249981    -1.4916520039     1.7662875239
          2
Energy: -3.658642587042618E-6 Kcal/mole
 Ne    -6.8625028798    -2.4168932028     6.7011995542
 Ne     1.5609211181     4.9272536539    -7.4995116861
          2
Energy: -1.0113190212648622E-5 Kcal/mole
 Ne     4.9020103858    -5.6222294252    -3.5182526320
 Ne    -3.4757778480     1.0053780624     7.3705892014
          2
Energy: -5.678190390744088E-6 Kcal/mole
 Ne    -0.5599329165     4.8817555119    -6.5519089375
 Ne     7.0743637974    -4.0098845472     5.4773081600
          2
Energy: -0.0027646810561454058 Kcal/mole
 Ne     6.5419285823    -3.1708541070     2.2302162391
 Ne     1.6340774241    -2.9533387443    -1.1750942258
          2
Energy: -7.92198237416563E-5 Kcal/mole
 Ne     4.2279783359     1.2399318866    -4.0634126780
 Ne     2.6772142198    -4.7699153727     4.8037279584
          2
Energy: -5.052537067505696E-6 Kcal/mole
 Ne     0.5353640683     6.0094081705     5.5500143910
 Ne     5.6980705226    -6.5172103618    -4.9222447701
          2
Energy: -5.424379023244571E-5 Kcal/mole
 Ne     4.1651062788     0.2460993548    -5.0144482526
 Ne    -4.0405956283     0.2654429576     3.0838953832
          2
Energy: -0.009383804933530157 Kcal/mole
 Ne     5.8540278952     2.1590439154     3.4888791544
 Ne     5.9448886120     0.8646446170    -1.1896662574
          2
Energy: -0.06899999993142983 Kcal/mole
 Ne     4.7240268146     1.4897021209     2.7153534629
 Ne     5.8269708934     0.8807226731    -0.1394505132
