          2
Energy: -0.01716251224418847 Kcal/mole
 Ne    -3.8479916268     2.0992626489     2.5649928217
 Ne    -1.4118525187     3.2279755238    -0.8781772043
          2
Energy: -4.1486414105709795E-5 Kcal/mole
 Ne    -4.6844136103     5.8600357458    -5.2270521011
 Ne    -3.9654344485     0.4820034370     5.5388918295
          2
Energy: -0.029502782408584973 Kcal/mole
 Ne     3.2919182647    -0.5029094902    -2.3935126544
 Ne     6.9230064318    -0.1307938906    -0.8862937481
          2
Energy: -2.8341071501152535E-5 Kcal/mole
 Ne    -6.1334639369    -2.9293413423     3.1243815198
 Ne     1.5452129923    -3.8582436600    -7.1327450045
          2
Energy: -4.93323283572171E-4 Kcal/mole
 Ne    -1.0189989034     0.4774605953    -7.4719005782
 Ne     2.3579591207    -4.8997920253    -2.6422951450
          2
Energy: -0.014797636314013407 Kcal/mole
 Ne     7.2997585528     2.4411913266     2.5492446123
 Ne     6.9362201660     0.1104587925     6.3617523950
          2
Energy: -1.6312730985672066E-4 Kcal/mole
 Ne    -4.7461288343    -2.6697879211    -0.1109180888
 Ne     1.1715319949    -5.1878417295     7.0104238298
          2
Energy: -0.0028466333067776457 Kcal/mole
 Ne     2.2224718176    -0.6742476834    -4.5962413075
 Ne    -2.6688654610     0.0262868733    -1.2849445791
          2
Energy: -0.012541153498677989 Kcal/mole
 Ne     4.4557598636    -1.2874089281     0.0178852948
 Ne     3.1261555392    -0.0947013288    -4.2385517116
          2
Energy: -0.06899999996679917 Kcal/mole
 Ne     4.4399276976    -0.7786952592    -0.4709328309
 Ne     3.4445908052    -0.2613615695    -3.3827786264
