          3
Energy: -0.03086110346536526 Kcal/mole
 Xe     6.3475463387     2.5115217129    -8.1656850661
 Xe    -0.0294553626    -3.1653228421    -2.8177023978
 Xe     4.6262438135    -3.6335957076     3.7074394542
          3
Energy: -1.0860019913108565 Kcal/mole
 Xe     7.7527277370    -4.6762500356    -1.3673377452
 Xe     4.7665296090    -0.9516096182    -0.1137020311
 Xe     4.4302876615    -5.2550115391     1.9442029703
          3
Energy: -1.0820978212154762 Kcal/mole
 Xe    -3.3748620068    -4.2379374996     5.5700739111
 Xe    -7.1264614609    -5.2193646811     3.3380984325
 Xe    -3.2412468452    -7.7090808016     1.8770649116
          3
Energy: -1.2461003272646183 Kcal/mole
 Xe     2.5377191561    -3.2240260534    -0.6195156641
 Xe    -0.6638258211    -4.8582817328    -3.1522043920
 Xe    -1.0606366226    -4.2375111986     1.4230515650
          3
Energy: -1.2294180630431402 Kcal/mole
 Xe     0.2650807944    -5.1541158327     3.8976554257
 Xe     2.7343909573    -1.4588532636     3.5198559407
 Xe     4.2714855282    -4.3533624936     6.4143954513
          3
Energy: -1.2539876974537814 Kcal/mole
 Xe     2.8700635136    -4.3938912856     4.2278880171
 Xe     7.2735026944    -2.8880875207     3.9708313428
 Xe     5.2856499847    -5.2812576034     0.7675841597
          3
Energy: -1.2887070152365503 Kcal/mole
 Xe    -0.2384693166    -7.7692805933    -0.6390093059
 Xe    -1.1817123074    -4.6724770068     2.3771025471
 Xe     1.8287427672    -7.7105065867     3.1699664304
          3
Energy: -1.2861747281672902 Kcal/mole
 Xe    -4.5390661370     0.7403408937    -5.2266829740
 Xe    -4.4659643433    -1.2112625157    -1.3478155049
 Xe    -5.3972886030    -3.6129075162    -4.8293144123
          3
Energy: -1.2351027782423274 Kcal/mole
 Xe    -7.3126268969    -4.1444878222     1.0640012003
 Xe    -3.5012709457    -4.4322284100     3.2037591332
 Xe    -7.3840733336    -2.3520620639     5.0157940616
          3
Energy: -1.2989960173929438 Kcal/mole
 Xe    -7.4090778598    -4.6393373327     1.2697806891
 Xe    -3.6400958272    -4.2665217233     3.5440143744
 Xe    -7.2543649439    -2.1112559657     4.8902645550
