          3
Energy: -0.4838989600922007 Kcal/mole
 Xe    -1.1412598164     0.6544266965    -2.0668150144
 Xe    -4.4348184028    -2.2437532133    -1.2838832819
 Xe     4.3862493513    -1.1274324674    -6.2575551708
          3
Energy: -0.058920956747171536 Kcal/mole
 Xe     6.3596918220     3.0938392260    -2.8581115079
 Xe     2.2522664477    -3.1017569022     5.4586033669
 Xe     6.7923524892    -8.0143478393     3.4895643082
          3
Energy: -0.19952003334141033 Kcal/mole
 Xe     5.0549780031    -2.3532810500     2.5110608009
 Xe    -3.4247583924    -6.4462003714     7.4000752856
 Xe     7.4122471269    -2.6864236674     7.5236690298
          3
Energy: -0.004847918472531659 Kcal/mole
 Xe    -2.9917505938    -4.3556033164     7.3249427486
 Xe     7.4677000781    -0.1165521591    -7.5739078300
 Xe    -3.2049501790     0.9163963101    -5.8604939875
          3
Energy: -0.04381782483793663 Kcal/mole
 Xe     2.5620487754    -0.5901803519     1.3652134079
 Xe    -7.4174737479     4.4412358430     2.3724339604
 Xe    -0.0118266999     7.1762460711     0.1319233684
          3
Energy: -1.244714647788931 Kcal/mole
 Xe     4.4364841027     3.9859281635     2.6962391220
 Xe     7.8250484899     1.6377879976     1.4351043660
 Xe     4.1499992785    -0.3941284481     1.8712279458
          3
Energy: -1.2393010448352748 Kcal/mole
 Xe     1.6927584270    -6.4478526868     6.1247386209
 Xe     1.7632837176    -7.9811104657     1.9157673276
 Xe     0.1407609445    -3.8178400469     2.5017275142
          3
Energy: -1.139735691821818 Kcal/mole
 Xe     7.4636634149    -4.2599331436     4.3428280361
 Xe     5.7244556542    -7.9960131308     1.4232741578
 Xe     6.3722227280    -3.6224357921     0.2184283579
          3
Energy: -1.2296936873291566 Kcal/mole
 Xe     1.2716097587    -4.7396625048    -2.4256782439
 Xe     4.6463752967    -3.7684494964     0.5740060994
 Xe     0.1869204698    -3.1650009279     1.7305929960
          3
Energy: -1.2989945182197267 Kcal/mole
 Xe     1.4500940128    -5.2983427285    -2.2058772062
 Xe     4.6388042175    -3.7553797487     0.4338763295
 Xe     0.4237527487    -3.6039318542     1.7445930116
