          6
Energy: -5.503382982959335 Kcal/mole
 Xe    -0.8333503581     5.0400464662     0.1317206266
 Xe    -0.9518343646     9.0069925990    -1.7580099898
 Xe    -1.0256907181     8.6503390375     2.6141874963
 Xe    -4.6350239920     9.9522561619     0.4457454721
 Xe    -4.5093409560     5.9853147822     2.3198894440
 Xe    -4.4180548552     6.3416033892    -2.0721679115
