          6
Energy: -4.5927562598813045 Kcal/mole
 Xe    -5.8743562618    -1.2254803884     2.7297501204
 Xe    -2.6105416500     2.2644340678     2.3204807387
 Xe    -3.8237069730    -6.0257047942     1.6966635770
 Xe    -2.4267970781     0.2004460630     6.3225587531
 Xe    -3.1241759089    -4.1238356466     5.9453322543
 Xe    -1.6080684221    -2.1800954738     2.4143988674
          6
Energy: -3.9127558927610155 Kcal/mole
 Xe     6.4572093075    -6.4336987769    -1.9924404073
 Xe     2.7857532143    -8.8291471311    -3.0212587036
 Xe     2.2378480893    -3.3631144613    -0.8397230532
 Xe     2.2199848351    -4.3653245644    -5.1527268581
 Xe     6.0324053398    -3.0419127735     1.1203308697
 Xe     4.1561829263    -7.5744595587     1.7449343311
          6
Energy: -3.9886675934779814 Kcal/mole
 Xe    -6.5338150378    -6.1160143139    -0.9849049393
 Xe    -9.5645101855    -6.2929528548    -4.5568573607
 Xe    -1.9253313149    -4.3668462569    -1.2019623174
 Xe    -2.2819077591    -8.4051627797    -3.5500232490
 Xe    -2.6246217425    -8.5983591032     1.0431114737
 Xe    -5.3342734418    -5.7403081059    -5.2245697833
          6
Energy: -4.274028888924859 Kcal/mole
 Xe    -7.8021271802    -4.5071770898    -4.7407920999
 Xe    -3.7469424631    -3.9852825945    -4.0638171951
 Xe    -5.7534063465    -3.6605790439    -8.8104511728
 Xe    -2.0819770700    -1.7540989770    -7.5193442916
 Xe    -5.5035976763    -0.1609600387    -4.9623313677
 Xe    -4.1604087221    -6.8055883417    -6.7941859987
          6
Energy: -4.139657029070266 Kcal/mole
 Xe    -5.6350934427     1.6811296359    -0.7476753975
 Xe    -4.6526075034    -2.4613887705    -0.3716946743
 Xe    -9.0972350936    -5.1543642621    -5.3104278066
 Xe    -4.8028394444    -4.3783441592    -4.4551368112
 Xe    -6.0781690732    -0.1540980280    -4.4953735653
 Xe    -8.6377745962    -1.2279761500    -1.0750148989
          6
Energy: -5.094814100472881 Kcal/mole
 Xe    -5.4991972213    -2.6356101896    -1.9857971000
 Xe    -9.8332775338    -2.4803159626    -3.0948191963
 Xe    -7.3595093592    -1.7999042475    -6.7827460481
 Xe    -3.7721159599    -4.3018064389    -5.8769888531
 Xe    -3.5308487769    -0.0773677273    -4.8431118013
 Xe    -7.3921560021     1.1004930811    -3.2298500788
          6
Energy: -4.981642976515052 Kcal/mole
 Xe    -7.1417790591    -0.2030703931    -2.3898323653
 Xe    -5.2262180843    -3.7023989632    -3.7978965079
 Xe    -5.3903410191    -0.4569019935    -6.8655728222
 Xe    -2.5704668821     0.0807956227    -3.4207098326
 Xe    -5.0207516117     3.2486949632    -4.3195256872
 Xe    -9.1022527175     1.8704270013    -5.5455053854
          6
Energy: -5.161865895597271 Kcal/mole
 Xe    -7.7685535519    -0.5402709713    -1.7114710345
 Xe    -9.7661869413    -0.9417190202    -5.5623475352
 Xe    -5.1802382536    -1.4382667047    -5.1929092368
 Xe    -4.1252061752    -2.4959940203    -0.8249848515
 Xe    -3.9594094667     1.5666210441    -2.0524983309
 Xe    -7.0353867734     2.6095130962    -4.9378060947
          6
Energy: -5.178007076628487 Kcal/mole
 Xe    -6.2309125511     0.6395830088    -1.3585414723
 Xe    -7.8104759991     2.5242915330    -4.9146938082
 Xe    -5.5585600439    -1.4950942020    -5.3072074584
 Xe    -5.7866922344    -3.6791087680    -1.5117242215
 Xe    -2.2957881242    -0.8798474416    -1.9798657242
 Xe    -3.5358099110     2.3284230274    -4.5747893074
          6
Energy: -5.326513931628088 Kcal/mole
 Xe    -6.3153151184     0.6660207948    -1.5476867734
 Xe    -7.8633447668     2.0804766448    -5.4086413850
 Xe    -5.4115692580    -1.5611601730    -5.2934817035
 Xe    -5.8468653923    -3.6961353463    -1.4701536939
 Xe    -2.3414707400    -1.1236684338    -2.1476227579
 Xe    -3.5483556914     2.3784477494    -4.5383816191
