          6
Energy: -5.326513931628088 Kcal/mole
 Xe    -6.3153151184     0.6660207948    -1.5476867734
 Xe    -7.8633447668     2.0804766448    -5.4086413850
 Xe    -5.4115692580    -1.5611601730    -5.2934817035
 Xe    -5.8468653923    -3.6961353463    -1.4701536939
 Xe    -2.3414707400    -1.1236684338    -2.1476227579
 Xe    -3.5483556914     2.3784477494    -4.5383816191
