          6
Energy: -0.8375013500855301 Kcal/mole
 Xe    -0.7208715426     1.2134459349     8.6139643311
 Xe    -2.1282850717     7.2381571773    -5.0814327690
 Xe     2.3641906130    -0.2047858604    10.8349063026
 Xe     3.9266548596    -7.2194760512     5.2203171807
 Xe    10.1963968201     0.7874448477     2.6468705375
 Xe     1.6649366713    -5.4458899115     9.2903594110
          6
Energy: -2.065194514766452 Kcal/mole
 Xe    -4.4616538973     0.0877256575    -6.5291460076
 Xe    -1.4441665409    -4.2668877139    -7.9084352016
 Xe    -9.8454689038    -8.6355013711     8.7361599055
 Xe    -5.6329019956    -4.4597865421    -5.9673035735
 Xe    -0.1860799965    -0.4924323974    -7.7436072481
 Xe    -0.1655136988     2.9587697900   -10.9998766252
          6
Energy: -0.8517623104106278 Kcal/mole
 Xe     6.2793206041     9.8653567154    -1.4758338172
 Xe     2.6967744357    -9.2789538474    -4.3690142813
 Xe    -7.5585119443    -0.8082093471    -3.4544683822
 Xe    -0.4365898554   -10.0765762754    -0.5227632525
 Xe    -6.6356961202    -0.8148583962     4.3287731646
 Xe    -3.5967998158    -8.8648595638    -3.1181087951
          6
Energy: -4.014176527835938 Kcal/mole
 Xe    -3.5950685968     7.2189867866     4.4900925350
 Xe    -0.0727851923     7.2951731598     1.0756552661
 Xe    -4.7181133537     6.3382442668     0.1736570573
 Xe    -4.8231897562    10.5874172844     1.3935962753
 Xe    -3.7071557249     2.8853089738     4.2029834240
 Xe     0.6624639440     5.0425395110     4.5828267286
          6
Energy: -3.7235705252120916 Kcal/mole
 Xe    -0.8181536942     3.3863533023     1.8792796591
 Xe    -1.6872934406    11.5033158214     3.3236258242
 Xe     4.3558374402     8.9438616197     0.9418772517
 Xe     0.4306810300     7.5409575833     0.6159820183
 Xe     2.6903319048     5.3614636979     3.4826467429
 Xe     2.2473191430     9.5529131699     5.3922916910
          6
Energy: -4.449954171607607 Kcal/mole
 Xe     3.9077168506     0.6465991233    -2.1129243513
 Xe     2.8673748954     3.3814943481     1.8579666287
 Xe     1.1208592996     3.5513140399    -3.8302371559
 Xe     3.0317257439     6.8434556875    -5.2827129130
 Xe     4.7791534169     4.7331031660    -1.9264998102
 Xe     0.8031095584     6.5970775197    -0.5050628139
          6
Energy: -4.9486215567360645 Kcal/mole
 Xe    -0.3535912765     5.2934539791     3.0467714527
 Xe    -2.4961681451     9.0230584108     2.0180562816
 Xe    -1.5645569259     6.1214757788    -1.0337580608
 Xe    -0.1398150767    10.9318119254    -1.1682766620
 Xe     2.3892177282     7.4335465058    -1.7309795882
 Xe     1.8735981938     9.0993812254     2.0721173826
          6
Energy: -4.785917390007814 Kcal/mole
 Xe     2.0603501791     8.6021020848     1.1005395114
 Xe    -1.2926779444    10.0564408441    -0.9484932507
 Xe    -1.3089607839     8.9731405577     3.7178243992
 Xe    -3.6261078678     6.4057270511     0.2458440177
 Xe     0.3294144416     5.1788299797     2.6889309828
 Xe     0.1670420083     6.4273450524    -2.1875864668
          6
Energy: -5.238103702897907 Kcal/mole
 Xe    -0.7554825844     5.0188676543     0.0365135463
 Xe    -0.8711337513     8.8797569747    -1.8670089499
 Xe    -1.0668138093     8.6145450277     2.5488302489
 Xe    -4.7985442719    10.1726427942     0.4904491077
 Xe    -4.5725657586     6.1509578959     2.3468940888
 Xe    -4.5970706426     6.0870829201    -2.0786529201
          6
Energy: -5.503382982959335 Kcal/mole
 Xe    -0.8333503581     5.0400464662     0.1317206266
 Xe    -0.9518343646     9.0069925990    -1.7580099898
 Xe    -1.0256907181     8.6503390375     2.6141874963
 Xe    -4.6350239920     9.9522561619     0.4457454721
 Xe    -4.5093409560     5.9853147822     2.3198894440
 Xe    -4.4180548552     6.3416033892    -2.0721679115
