          6
Energy: -1.385338626444934 Kcal/mole
 Xe    -3.7236100375    -8.8527074966    -7.2996936447
 Xe    -0.1811924250    -6.6838837573    -7.5189539025
 Xe    -2.9325512415    -4.4814970381    -4.7306604694
 Xe     1.1598223284    -1.2712762946    -2.7362557817
 Xe     2.9729604765    -1.4165904386   -11.1120957743
 Xe    -3.9503535500     3.6410740995     3.8231492338
          6
Energy: -0.1886479107716162 Kcal/mole
 Xe    -5.1297742236   -11.0628351312     6.3405594353
 Xe    -7.2472425621    -5.3033763416     1.3048170119
 Xe    -2.9467364488    -1.3050270627     9.6294970346
 Xe     9.6940858572    -2.8678391622   -10.5568048777
 Xe   -11.5418531183    -7.9575086700    -8.1165244492
 Xe     0.7367903609   -10.9577274210     5.7987249394
          6
Energy: -0.5838234830352086 Kcal/mole
 Xe    -5.3502386004     0.3194216204    -0.9037522049
 Xe   -10.1023779371     1.0056465513    -7.4953427223
 Xe   -10.1777487468    10.1869896950     9.7244695262
 Xe     4.0006584132    -2.0417918478    -2.0936008599
 Xe    -3.8031234366    -1.1702153096    -8.0548503476
 Xe     2.9802011503    -6.2438821611    -1.0976450446
          6
Energy: -1.798221857874211 Kcal/mole
 Xe   -11.4550298643     5.8230584365     4.2970345681
 Xe    -9.2772974548     6.7096547203     0.3801568615
 Xe    -6.1737871701     4.8467947344     3.3466018869
 Xe    -4.0781025425    -1.9179804467    -4.8403110789
 Xe    -4.1309315712     8.7191866033     4.6904032176
 Xe    -7.6952513186    -0.3356644288     1.2111581649
          6
Energy: -3.5079769291592275 Kcal/mole
 Xe     0.1032625867     6.2487556949     1.1679329257
 Xe     1.4579322352     2.7571967248    -4.9566834507
 Xe    -2.5158088463     1.8597677697    -4.3739778684
 Xe    -0.1795484339     6.3235729933    -3.1178095704
 Xe    -3.8042322872     6.5886878872    -4.9303856694
 Xe     1.3384048194     2.6218816428    -0.3742417984
          6
Energy: -4.454686944950292 Kcal/mole
 Xe    -2.7249689864     4.4970122527     5.5899843638
 Xe     0.5214378353     5.6829657602     2.5972507834
 Xe    -2.9196406029     8.4128426266     2.3000915509
 Xe    -0.3073405510     8.5540832377     6.0386656894
 Xe     1.2418576441     4.5847916996     6.5633522103
 Xe     1.0460512666     9.1073714529     0.0907925500
          6
Energy: -4.487755737716834 Kcal/mole
 Xe     0.6888263379     5.8078519767     1.9751536103
 Xe    -1.6314485540    -1.2012395326     0.5093566192
 Xe    -0.1809634187     2.0213476783     4.2394986191
 Xe     1.3713095721     2.1190465617    -0.0068575875
 Xe    -1.1616425567     1.5488491994    -3.3469291726
 Xe    -3.1983876600     2.5316412492     1.3267441542
          6
Energy: -4.826491984820567 Kcal/mole
 Xe    -2.8108800676     3.1356702563    -0.0874826563
 Xe    -1.9887477706    -3.2517065228     3.7437801355
 Xe    -1.8659162049     1.1216755350     3.8051016838
 Xe    -1.5728083825    -1.3191855581     0.0518970924
 Xe    -5.3602437494    -0.4364610490     2.2025360326
 Xe    -4.5533315980    -1.3196014939     6.2929913730
          6
Energy: -4.900134455964894 Kcal/mole
 Xe    -2.1481280613     1.9672560938     9.9658749788
 Xe    -0.9531740387    -1.6850671741     3.6274641473
 Xe    -1.6521802948    -1.9553617264     7.9484079846
 Xe     0.5785341845     1.7367061449     6.1650493353
 Xe    -3.5898955393     1.1949506641     5.7590366360
 Xe    -5.1121677377    -2.7844670437     3.9340277892
          6
Energy: -5.325251205624631 Kcal/mole
 Xe    -2.3292497846     1.5580304820     9.8550486917
 Xe    -0.7775585900    -1.2568786770     3.4467134515
 Xe    -1.7699386659    -2.2185433035     7.6409005868
 Xe     0.7110226485     1.2991794921     6.6856222505
 Xe    -3.5969913520     1.3480914189     5.6642557596
 Xe    -4.8115368655    -2.7103992866     4.5082345639
