          6
Energy: -0.7956055590276574 Kcal/mole
 Ne    -2.8063538476     4.4151182956    -1.8164106014
 Ne    -3.4194516933     3.4286666598     1.1247469761
 Ne    -5.7786349538     4.0999950777    -0.9584343636
 Ne    -4.7306252378     2.3190956017    -3.1996314211
 Ne    -2.5331133697     1.4688422123    -1.1118914176
 Ne    -4.0607079603     6.4169111607     0.2028359380
