          6
Energy: -0.8451735560158807 Kcal/mole
 Ne    -2.3419103979    -1.3216408281     4.4925338626
 Ne    -2.4529553319    -4.4673075943     4.4645433917
 Ne    -5.0819634377    -2.8451456785     4.3736693430
 Ne    -4.6205185322    -0.3562495726     2.5893034027
 Ne    -3.3427941090    -2.9056318101     6.9804160371
 Ne    -3.1047209086    -2.9456890745     1.9177845528
