          6
Energy: -0.030766267523372286 Kcal/mole
 Ne     1.3327885610    -0.3103771463    -0.9354993417
 Ne    -6.7228988203    -4.4217529202    -3.5231261508
 Ne    -5.7383767302    -4.8973073917     6.0927932510
 Ne     6.5757421455    -3.5497351472    -2.7439398584
 Ne    -4.6225351933    -1.3907445295     4.3650416209
 Ne    -2.5478631387     4.7927314215    -0.5453077617
          6
Energy: -0.010235688624912437 Kcal/mole
 Ne     5.6063478556    -1.8205913384    -6.0780458850
 Ne    -4.1787565558    -6.1035468390     2.0407612895
 Ne    -3.3026997907     2.3772815908    -5.1755973327
 Ne     7.0535525181     0.7516098194     2.5843294994
 Ne    -2.2990773486    -2.4314721839     7.4026656282
 Ne    -1.0133727532    -4.2305071470    -1.4797829155
          6
Energy: -0.08753915296699645 Kcal/mole
 Ne     6.7772424870     1.0480870145     2.3071838550
 Ne    -5.8997672696    -1.6355324121     1.4180644507
 Ne     6.8893864430    -4.2789128302     2.3125953415
 Ne     4.8597141530    -0.6230723828     0.7383535599
 Ne    -3.0749693398    -3.7207004558    -6.1265231970
 Ne    -0.3475293342     0.2983915025     4.9910591103
          6
Energy: -0.09712617030845028 Kcal/mole
 Ne    -6.4592271932    -4.6841318801    -0.7557836626
 Ne     4.8722769289     7.3173878012     3.4505500724
 Ne     1.6839720646     3.5944164315    -4.7004226787
 Ne     3.7243997967     3.1042492169    -1.8829556993
 Ne    -4.1911715368    -3.7578862700     3.8528319223
 Ne    -1.5168995830     5.5855384685    -5.0155790334
          6
Energy: -0.0553587011293611 Kcal/mole
 Ne    -0.0900250705     5.0345743624     4.8035146239
 Ne     3.2812844834    -6.0646036465    -1.5263236805
 Ne     4.9325401619     4.7302699416    -1.2797901875
 Ne    -4.9404055425    -5.7168214647     5.3148606612
 Ne     0.9593630058     0.0285159498     2.9653044038
 Ne     3.3897419816    -1.0122252017     4.1360977356
          6
Energy: -0.06465077508041055 Kcal/mole
 Ne     1.0126053559     5.9400457185    -0.8170396539
 Ne    -3.2075121374     1.3080564948     4.7425918338
 Ne     6.6090319034     5.5675244477     3.8397577938
 Ne     3.7618494193     6.2081058980     5.8417372896
 Ne    -1.1538547087    -5.0390365972    -5.2617520056
 Ne    -7.4359076413     2.8228295440     5.8775214712
          6
Energy: -0.1619759090011271 Kcal/mole
 Ne    -4.6951225894     0.3974944168     4.3718168139
 Ne    -4.9053745291    -1.3593541469     1.0401756741
 Ne    -3.0569588280    -6.3094664005     3.0399383453
 Ne     0.9137894988     6.9570121547    -1.0377498241
 Ne    -6.6242060232    -5.7421877242     1.5846478432
 Ne    -4.0703038599    -6.5281726919     5.8960144095
          6
Energy: -0.1439293520879476 Kcal/mole
 Ne     7.1759979901     3.3332919553     4.7873671993
 Ne     6.2043286531     3.2597330871    -2.8581670665
 Ne     4.0327370763     3.5024543607    -0.7488655075
 Ne     4.8630120339     6.6052022838    -3.2881027394
 Ne     4.6786537365    -6.1510248703    -1.5654920461
 Ne     5.1207891629    -1.8162121722     5.4796139279
          6
Energy: -0.663035754636845 Kcal/mole
 Ne     3.2948120946     0.0646284442     1.4147536083
 Ne     3.4850114672     4.2250694893     2.0419792382
 Ne     1.4519487232     1.9336635307     2.7555719275
 Ne     4.7769563411     2.0580278192     3.8511480057
 Ne     2.8520176970    -0.3415443434     4.9710928971
 Ne     5.9195668999     1.6226408904     0.6646550722
          6
Energy: -0.848612785295177 Kcal/mole
 Ne     3.2570616811     0.3372350192     1.6131990529
 Ne     3.3465835217     3.4325195406     1.3707923064
 Ne     1.6129236161     2.1146723651     3.5890476994
 Ne     4.7283315046     2.0421815674     3.7877873351
 Ne     3.0739013240    -0.4372252744     4.6115661797
 Ne     5.9331669818     1.7415598284     0.9201280326
