          6
Energy: -0.012837376980522992 Kcal/mole
 Ne    -4.5369611354    -0.8976976965     2.7747616379
 Ne    -2.6116622036    -2.3827622738    -4.4848558884
 Ne     4.1972037509     0.0829600348     0.7519999328
 Ne    -4.4716433832     4.9586420463     2.5285546197
 Ne     3.1170761192     4.6928575425    -2.2483603723
 Ne    -0.3725148959    -4.8557831729     4.2923259296
