          6
Energy: -0.0064748899664346556 Kcal/mole
 Ne    -6.9824177079     6.4482378363    -7.0842770510
 Ne     6.1975783619     1.8375190449    -7.0498265690
 Ne     0.8374345655    -5.0783370924     1.3739663371
 Ne     0.3270928166     5.5894799218     5.0078639210
 Ne     0.9065914182    -1.5483556043    -3.5052312623
 Ne    -4.9803643061    -1.4739727882    -5.6978553624
          6
Energy: -0.006934471525921588 Kcal/mole
 Ne     0.3790392301    -7.0785200316     2.2852673017
 Ne    -5.4491090070    -0.2532950672    -1.6320447412
 Ne     7.2880932416     3.8240308035     1.4201823316
 Ne     0.7147325544     4.5995656447     5.5859570159
 Ne     2.0507102392     2.4592670969    -1.3954575139
 Ne    -6.9908916339    -6.3388852214    -2.5241631049
          6
Energy: -0.0744810443353696 Kcal/mole
 Ne     3.5366793622     1.1528244749     2.5249492853
 Ne     0.3571135662    -6.0074782692    -4.0243632099
 Ne    -2.4790606542     2.6116103195    -3.2601461642
 Ne    -5.7628344841    -4.6234829162    -5.0088298363
 Ne     1.0435937166    -1.8082500618     0.2167807153
 Ne     3.4979474525    -4.6302501209    -2.6097954149
          6
Energy: -0.04130117996933823 Kcal/mole
 Ne     6.0016025134     0.4411396295    -5.9618385065
 Ne     3.8551011355     0.8590627428    -1.2137466934
 Ne    -3.2482232492    -1.9874413569    -3.8255027062
 Ne    -5.5679610201     3.6684664490     6.6899359514
 Ne    -2.2520752682    -5.9870343503    -0.5086499316
 Ne    -7.2443785727     2.0677398030     3.4497320659
          6
Energy: -0.11677629028407256 Kcal/mole
 Ne     5.4012313122    -1.0623184750    -3.9484353789
 Ne     4.7194469718    -1.6292868253    -7.3761350311
 Ne    -3.2695432777    -2.8717088554    -2.1817192931
 Ne     2.6961407872    -6.7438728857     1.2500365630
 Ne    -2.8166115631    -0.1736057092    -3.4196862837
 Ne    -6.0663448551     6.8519746942    -0.8360553321
          6
Energy: -0.1044193004581446 Kcal/mole
 Ne    -6.8501955340     1.9558687966    -3.7951221020
 Ne    -2.7501318579     5.4254167179     5.9590241513
 Ne    -0.4741422038    -2.9385955958     7.3843526604
 Ne    -4.3188700030     1.0785146021    -5.6506813879
 Ne    -1.3780875758     1.8151873560    -2.8241214983
 Ne    -3.1917232655    -0.9708892932     0.9693217688
          6
Energy: -0.002912760062318241 Kcal/mole
 Ne     5.5177444876    -6.3488771292     3.8740051394
 Ne     4.8088452451     6.1242911231     0.9020406395
 Ne    -6.4267921682     6.4886480548    -3.6299646933
 Ne    -5.4813935328     2.1019006373     4.7541418596
 Ne     1.8470838757    -1.7870055886    -3.1298796348
 Ne    -2.0746736481    -5.3031168659     1.0578770051
          6
Energy: -0.08510593760864685 Kcal/mole
 Ne    -1.5179979484     0.5114508618     3.6169605626
 Ne     0.4729256315     6.8163801737     3.5427533366
 Ne    -4.4139169203     1.2742119622    -6.7055697438
 Ne     0.7388067070     3.9987195874     5.3736166561
 Ne     5.5220961509    -5.1748238923     0.4531407491
 Ne     6.9969335495    -7.0062958972     4.7138025387
          6
Energy: -0.28240138910534396 Kcal/mole
 Ne    -5.1820435789     7.3972375383    -2.9168807477
 Ne    -3.5403699521     4.0299384070     2.3617683391
 Ne    -6.2059513472     4.5455760876    -0.4857497839
 Ne     0.2958117407    -7.1860456182    -1.0968134222
 Ne     0.7342445158    -3.8616114954     0.1184377125
 Ne    -4.2395302897     6.5260087466     0.6680109160
          6
Energy: -0.7956055590276574 Kcal/mole
 Ne    -2.8063538476     4.4151182956    -1.8164106014
 Ne    -3.4194516933     3.4286666598     1.1247469761
 Ne    -5.7786349538     4.0999950777    -0.9584343636
 Ne    -4.7306252378     2.3190956017    -3.1996314211
 Ne    -2.5331133697     1.4688422123    -1.1118914176
 Ne    -4.0607079603     6.4169111607     0.2028359380
