          6
Energy: -0.022058405385013993 Kcal/mole
 Ne     0.4236720591     3.3691875371    -6.5729690852
 Ne    -3.4437064392    -5.5203867665     3.7422114804
 Ne    -5.3204820183    -4.8164015352     0.0157474830
 Ne     4.3829345907    -5.0846472646     5.8970929627
 Ne     6.6079376005     0.5306953177    -3.8715844294
 Ne     2.6048508405     6.8495070747     4.9595702525
          6
Energy: -0.059414297635840656 Kcal/mole
 Ne     3.0443398599    -2.7977877961     6.5878039893
 Ne     1.2858495717     1.2382250183    -6.3345793548
 Ne    -2.6942298518    -0.7873485076     2.0330002819
 Ne     0.1503048031    -2.1388624480    -4.1509315644
 Ne    -0.4480665059     1.8849106884    -2.1838270525
 Ne    -1.5491961596    -7.1475691737     2.1941555511
          6
Energy: -0.0510138251679001 Kcal/mole
 Ne    -4.5816296677    -2.0327776791    -3.8302081509
 Ne     1.0753137513    -7.3389876918    -1.4724296133
 Ne     0.7970802130     4.1401272518    -2.8156742362
 Ne     7.4277095626    -7.3503428444    -7.1359489009
 Ne    -0.5190108789     7.4540081517    -2.6848500439
 Ne     1.0537076933    -2.7959130682     3.6156270880
          6
Energy: -0.10059325926473597 Kcal/mole
 Ne     2.3161120795    -5.8698465249    -0.5443979366
 Ne    -4.4140202586    -5.4585550234    -3.1970614713
 Ne     1.4754380746     2.7645503640    -5.2355760818
 Ne    -2.1339384354    -2.4606138075    -0.8739629867
 Ne    -1.4758825798     1.5510140862     6.7450859945
 Ne    -4.3035812264    -4.0548108792     1.0673000422
          6
Energy: -0.11309723101053193 Kcal/mole
 Ne     6.2747213651    -2.4334481832     1.5352461789
 Ne    -0.5920203199     2.6962477011    -0.6551403053
 Ne    -4.9195853610     3.2102242246    -0.6766374390
 Ne     4.8940588780     4.1144508164    -4.1264632554
 Ne     2.5531721566    -0.1225033450     5.5939495319
 Ne     3.2593575233     3.6925359399    -1.2475130077
          6
Energy: -0.032907581819780346 Kcal/mole
 Ne    -1.4182971204    -1.7332289361     2.6746638885
 Ne    -4.5578197461    -0.5471467378    -0.5420398709
 Ne    -3.5022883117     5.4082514089     0.7630485451
 Ne    -2.5677078430     3.4860334383     5.0023070555
 Ne    -0.3621480137    -6.1893006070     6.8418463842
 Ne    -3.0372863333     6.7602662419    -7.1799633692
          6
Energy: -0.10834576613801557 Kcal/mole
 Ne     3.0783249340     2.7416853854     7.4313925470
 Ne     1.1332990441     4.2778431189    -5.3296364099
 Ne    -5.8132745102     2.3440065102    -0.0967623767
 Ne    -0.6058982923     2.3823130638     7.2110466753
 Ne    -6.7396779988     4.7597553907     2.3469393963
 Ne    -4.6888344974     5.9354467134     6.2985893003
          6
Energy: -0.023975586117492526 Kcal/mole
 Ne     2.9157996044     5.7662596925    -4.2625356885
 Ne     6.7977240778     3.0741150599    -7.1664050674
 Ne    -5.0395976973     0.4524226990     4.7170260407
 Ne    -4.0799385275     5.2054757616    -1.0761687772
 Ne     0.2401116215     2.8537017307    -6.4843661288
 Ne    -3.2670414538    -2.2860492025    -2.4746310951
          6
Energy: -0.12634658664437787 Kcal/mole
 Ne    -2.1989972772    -0.4848529658     3.7175798243
 Ne     0.4515197958    -4.1388799414     0.5846114605
 Ne    -5.7835421450    -3.9853423833     4.1448287917
 Ne     4.2797162854     6.7733389109    -3.1742010276
 Ne    -6.7016184958    -2.6648246141     7.4362611654
 Ne     4.7229527848     7.2322004542    -0.0534831214
          6
Energy: -0.8451735560158807 Kcal/mole
 Ne    -2.3419103979    -1.3216408281     4.4925338626
 Ne    -2.4529553319    -4.4673075943     4.4645433917
 Ne    -5.0819634377    -2.8451456785     4.3736693430
 Ne    -4.6205185322    -0.3562495726     2.5893034027
 Ne    -3.3427941090    -2.9056318101     6.9804160371
 Ne    -3.1047209086    -2.9456890745     1.9177845528
