          28
Energy: -113.0515722981537 Kcal/mole
 H      0.8279064449     0.2749814102    -5.2978555702
 F      0.9509312953     0.1837941972    -6.2019787799
 H      1.5213078652     1.5355856172    -0.8211652535
 F      2.4286732219     1.4592166559    -0.9295391028
 H      4.1210327805     1.8411541230    -6.5234377246
 F      4.8047285693     1.8433708970    -5.9123369520
 H      2.0414726863     1.1172266541    -7.0546054308
 F      2.6991910345     1.6698706745    -7.3753548052
 H     -0.4448147665     0.7037727642    -0.9899318140
 F     -0.1131184621     1.5378535604    -0.8023797226
 H      4.4462862936     4.2722595454    -2.4450931294
 F      4.6704937720     4.6183851318    -3.2641273686
 H      4.2196394919     1.7375267663    -4.3945964602
 F      3.7665757337     1.6523719892    -3.6018979709
 H      3.4988734970     4.4174103564    -4.4003618498
 F      2.7736198463     4.2042654915    -4.9194624266
 H      1.5881720367     3.6037007254    -3.9653334471
 F      0.9909191286     3.1963880167    -3.4011753832
 H      0.8200140049     1.5673880474    -3.5322682423
 F      0.8011111751     0.6619422643    -3.6761418569
 H      3.3506636560     2.8497230477    -0.9830785607
 F      3.8280203175     3.6307362634    -1.0381963847
 H      3.5639168672     0.0520334136    -3.1186743066
 F      3.4844151594    -0.8542952927    -3.0040586249
 H      2.1568120413    -1.6161785168    -2.3471964650
 F      1.4122312897    -2.0280817506    -2.0054008679
 H     -0.0449923389    -1.3305376692    -1.6136272289
 F     -0.7868664656    -0.8597811674    -1.3511389508
