          28
Energy: -112.93498615698384 Kcal/mole
 H     -0.4246532524     3.4447072589    -4.4013121369
 F     -0.8764894706     4.1701283358    -4.7337234682
 H      3.1799624794     0.7395198563    -2.7179161107
 F      3.8380881086     1.1412147834    -3.2143039044
 H      1.9254107007     6.2928828243    -5.3778502917
 F      2.7596412408     6.0261072347    -5.6494735430
 H     -0.1771156336     5.6808497478    -4.8260937011
 F      0.3490074374     6.4314195525    -4.8530841140
 H      1.2479286710    -0.2864725231    -2.5250876746
 F      1.8626999853     0.1041143279    -1.9679636821
 H      5.3529277561     4.5442730300    -2.4035587642
 F      5.1946121597     5.4371938175    -2.5396382968
 H      3.1601117245     4.5892454859    -4.9835967268
 F      3.2572611417     3.7692853242    -4.5847028513
 H      3.5799927242     5.7555969330    -2.4394795230
 F      2.6646696379     5.7554661900    -2.3840482090
 H      2.1426493371     4.2606247715    -1.9428923946
 F      1.8840332357     3.3964502659    -1.7779404746
 H      1.0682606240     2.6408691317    -2.9969013990
 F      0.6287100011     2.3209310501    -3.7353618745
 H      4.8354528074     2.2636987825    -2.4958136874
 F      5.3605610079     2.8972745311    -2.0911753939
 H      2.9773683589     2.4769965496    -5.6254944309
 F      2.7429706652     1.8660554117    -6.2679099095
 H      1.5152232122     0.7562807678    -6.0920236947
 F      0.8297586641     0.1608802773    -5.9634717240
 H      0.4057511452    -0.5589332665    -4.5188238285
 F      0.2707595910    -0.9229846772    -3.6880814794
