          28
Energy: -113.04441298382012 Kcal/mole
 H      0.8179216436     0.2842185440    -5.2934883493
 F      0.9434647444     0.1912724512    -6.1970861325
 H      1.5127080461     1.5382803610    -0.8214164881
 F      2.4198328868     1.4594916770    -0.9300712937
 H      4.1421220294     1.8087387351    -6.5260998960
 F      4.8169107042     1.8377038612    -5.9058497321
 H      2.0648483027     1.0765931036    -7.0632094978
 F      2.7391219704     1.6017750557    -7.3955164920
 H     -0.4410868294     0.6972217550    -0.9820695951
 F     -0.1225156226     1.5383967685    -0.8036712129
 H      4.4668893314     4.2519032279    -2.4656673767
 F      4.6985821731     4.5919399382    -3.2851687267
 H      4.2222056545     1.7349708705    -4.3910695682
 F      3.7634877595     1.6500649544    -3.6016027366
 H      3.5043625488     4.4164171011    -4.4036067218
 F      2.7678789442     4.2163739465    -4.9119999126
 H      1.5858909799     3.6120926118    -3.9548429758
 F      0.9897521390     3.2020257279    -3.3915023744
 H      0.8090190054     1.5728089313    -3.5265516712
 F      0.7863781746     0.6677337170    -3.6722062252
 H      3.3463719660     2.8486813817    -1.0003776993
 F      3.8263928743     3.6275827207    -1.0618726731
 H      3.5614135186     0.0499958125    -3.1163387866
 F      3.4821023063    -0.8564313616    -3.0023716437
 H      2.1175768875    -1.6497817619    -2.4566921621
 F      1.3539179617    -2.0734559339    -2.1770240716
 H     -0.0470970329    -1.3481221270    -1.6545236820
 F     -0.7618811206    -0.8764749788    -1.3266187024
