          28
Energy: -113.04242012949207 Kcal/mole
 H      0.8194281966     0.2805077368    -5.2962694714
 F      0.9497417271     0.1826329888    -6.1986706668
 H      1.5194405458     1.5403451793    -0.8251281261
 F      2.4260084036     1.4673294844    -0.9421427719
 H      4.1499389299     1.8007597595    -6.5282689424
 F      4.8218911190     1.8349668632    -5.9052126611
 H      2.0736420470     1.0622290023    -7.0647644726
 F      2.7483286603     1.5860465084    -7.3983843071
 H     -0.4344890950     0.6936686814    -0.9730283278
 F     -0.1126153216     1.5324043072    -0.7891565683
 H      4.4589765023     4.2662420960    -2.4580072464
 F      4.6901515402     4.6043443750    -3.2784546553
 H      4.2115312941     1.7404245150    -4.3965306733
 F      3.7459286034     1.6567240627    -3.6109752209
 H      3.5017323794     4.4201749834    -4.4013024725
 F      2.7680184686     4.2161745996    -4.9121221477
 H      1.5812432007     3.6097087853    -3.9567569285
 F      0.9815570341     3.2016108874    -3.3957563873
 H      0.8047222558     1.5761389971    -3.5316934031
 F      0.7810389812     0.6708487220    -3.6758378455
 H      3.3433830605     2.8578459369    -0.9970475522
 F      3.8201213381     3.6392099266    -1.0525446723
 H      3.5511803935     0.0541784169    -3.1315421392
 F      3.4764566808    -0.8535824477    -3.0253556080
 H      2.1116742623    -1.6412598398    -2.4824059918
 F      1.3464116682    -2.0622231831    -2.2030280653
 H     -0.0527582804    -1.3399161514    -1.6659582776
 F     -0.7650723593    -0.8711234861    -1.3287178737
