          28
Energy: -113.00544156785277 Kcal/mole
 H      1.2428053209     0.2140707178    -5.0463569673
 F      1.1848413465     0.1272164183    -5.9573923718
 H      2.6417637201     1.7666416256    -0.8378738099
 F      3.4767900659     1.9367244873    -1.1765356205
 H      3.6342506561     2.5283615844    -6.9540089957
 F      4.4159984558     2.7198222334    -6.5145750444
 H      1.7599587128     1.2909582524    -7.0219235592
 F      2.1537975857     1.9875242508    -7.4697804024
 H      0.9486497370     0.4610492456    -0.5375586100
 F      1.1223126159     1.3508602027    -0.3998390936
 H      4.1548804491     5.1753961893    -2.9975606152
 F      4.0485567662     5.5485341000    -3.8284350787
 H      4.2375500589     2.5647836309    -4.9054350652
 F      4.0150095968     2.4181170104    -4.0280220238
 H      2.7826736607     4.9458180624    -4.6896716311
 F      2.0627857570     4.5050123730    -5.0479184040
 H      1.3186669218     3.6613713632    -3.8626941770
 F      0.9909135832     3.1376023984    -3.1851007735
 H      1.2545220330     1.5198950326    -3.3005808144
 F      1.4609472507     0.6396357874    -3.4536209746
 H      3.9415503349     3.5387571906    -1.3759035066
 F      4.1474537928     4.4231205012    -1.5039437378
 H      4.3149214344     0.8251762643    -3.5197531413
 F      4.4885032548    -0.0704271055    -3.4267318777
 H      3.6039071389    -1.1498490220    -2.5196104317
 F      3.0962707475    -1.7388196550    -2.0334953346
 H      1.6343979844    -1.4275788575    -1.3110538646
 F      0.8793379275    -1.1431416168    -0.8753145311
