          28
Energy: -111.74925234294885 Kcal/mole
 H      0.5831612144     2.4012859318     1.2077061221
 F      0.5566452908     2.6331186541     0.3208918830
 H      2.9823173043    -0.9169428521     1.9398616310
 F      3.4476412458    -1.5920243406     2.3505045578
 H     -1.5430665172     5.3861589126     0.4024196006
 F     -2.4328774884     5.3575339619     0.6222059690
 H      0.3303034311     4.2704074348     0.1005959872
 F      0.0618009837     5.1467849030     0.0730647495
 H      1.8311930777     0.2148398083     0.2767492633
 F      2.0607121937     0.2669133218     1.1630326969
 H      1.5193058996    -3.2772213748     5.2669818882
 F      1.1359754236    -3.1339906107     6.0876107291
 H     -3.0204978747     3.9977166899     1.3689932704
 F     -3.2338377131     3.1808864194     1.7269924638
 H      0.0484885899    -1.8776047633     5.9791799586
 F     -0.4328782947    -1.1334222165     5.7438774736
 H      0.4448553500    -0.3834907374     4.5969211365
 F      1.0127975884    -0.0599602233     3.9537581554
 H      0.6480326039     1.3918889645     3.2192047765
 F      0.4096247676     2.1956858828     2.8477734670
 H      2.5673299814    -2.6916269765     3.2265899554
 F      2.0491293666    -3.2923749857     3.6864366171
 H     -2.5291089613     1.7754511986     1.1982389361
 F     -2.0759005121     1.0584559203     0.8498011763
 H     -1.4948254139     0.9822815210    -0.7111230510
 F     -1.1012333683     0.9227722358    -1.5372180496
 H      0.4625617075     0.3804751825    -1.4320171050
 F      1.2950735352     0.0342256178    -1.2649114627
