          28
Energy: -113.03366608052657 Kcal/mole
 H      0.8188051932     0.2881596541    -5.3144055090
 F      0.9513146896     0.1933923401    -6.2168186015
 H      1.5531498270     1.5185508561    -0.8292987097
 F      2.4605761300     1.4345703635    -0.9313466474
 H      4.1785224870     1.7510726113    -6.5080623101
 F      4.8406987196     1.7858750585    -5.8746584684
 H      2.1057708210     1.0367101396    -7.0800173903
 F      2.7977880477     1.5386852433    -7.4117132650
 H     -0.4102756073     0.6991244217    -0.9894634104
 F     -0.0787235233     1.5374375318    -0.8215546699
 H      4.4944733716     4.2210804231    -2.5035250963
 F      4.7327955609     4.5476163680    -3.3266082092
 H      4.2318120887     1.6882946780    -4.3683858554
 F      3.7658573218     1.6103236957    -3.5824496740
 H      3.5293093785     4.3759939175    -4.4348703445
 F      2.7868340957     4.1790838073    -4.9357154933
 H      1.5939174839     3.6006789714    -3.9718251375
 F      0.9911615947     3.2010725119    -3.4080086642
 H      0.7993254070     1.5751738790    -3.5415295626
 F      0.7763264274     0.6705740252    -3.6900527979
 H      3.3740659743     2.8347119465    -1.0256941934
 F      3.8391671653     3.6218029925    -1.0968107698
 H      3.5385555157     0.0136595668    -3.0961813089
 F      3.4503035897    -0.8928279592    -2.9894997134
 H      2.0674264044    -1.6935506091    -2.5087752174
 F      1.2909355716    -2.1139108172    -2.2612913146
 H     -0.0710309358    -1.3594032034    -1.6734630767
 F     -0.7607685454    -0.8734960494    -1.3142343646
