          28
Energy: -113.01724543149076 Kcal/mole
 H      0.7556073304     0.3649624749    -5.3118656030
 F      0.8369250087     0.3166173822    -6.2239726072
 H      1.6161177777     1.4871293509    -0.7579988895
 F      2.5284145447     1.4548654021    -0.8449623674
 H      4.0927279396     1.8012762400    -6.5414376296
 F      4.7713152594     1.8021234516    -5.9246657662
 H      1.9951571922     1.1487489390    -7.0882460143
 F      2.6954341851     1.6368408471    -7.4233093253
 H     -0.3325159740     0.5774655019    -0.9760229438
 F     -0.0222323552     1.4205009106    -0.7918915351
 H      4.4370263022     4.2875497254    -2.4857065834
 F      4.6496472779     4.6057899179    -3.3190159501
 H      4.2082010710     1.6776634025    -4.3983466852
 F      3.7704408748     1.5855631522    -3.5978639843
 H      3.4660297738     4.3602975285    -4.4458875782
 F      2.7329390887     4.1245590747    -4.9437775549
 H      1.5838340071     3.5823019981    -3.9223686587
 F      1.0084368038     3.1944679677    -3.3228756868
 H      0.8267469960     1.5663876380    -3.4889122003
 F      0.8095596602     0.6681985943    -3.6728959961
 H      3.3915608420     2.8847498749    -0.9624634655
 F      3.8330677501     3.6834269165    -1.0523279929
 H      3.5727954884    -0.0143510656    -3.1232784900
 F      3.4930848272    -0.9210625804    -3.0118808264
 H      2.1026113960    -1.7584847797    -2.6504139532
 F      1.3175550346    -2.1925220336    -2.4601846926
 H     -0.0045938085    -1.4620979982    -1.7543420550
 F     -0.6700969069    -0.9935477859    -1.3319023262
