          2
Energy: -0.009249783195538049 Kcal/mole
 Xe    -0.6405873526    -3.2127442768    -3.5252919107
 Xe     3.7421401269     3.9358831500     0.7309126460
          2
Energy: -0.0013505832490676311 Kcal/mole
 Xe    -1.9350185652     3.2810851511    -2.9574374806
 Xe     6.7822847120     5.0209173398     6.4853295007
          2
Energy: -9.304002829608598E-4 Kcal/mole
 Xe    -4.7739973970    -4.8182822930    -3.4351080003
 Xe     7.1279357038     1.4472220400    -6.5226745786
          2
Energy: -0.41951813279093547 Kcal/mole
 Xe     2.1602734559    -0.2520934393    -5.7703075372
 Xe     1.8413062925     4.2595950810    -6.3669892013
          2
Energy: -0.43258478083284263 Kcal/mole
 Xe    -5.6218591015     4.6655517027     6.9435732917
 Xe    -1.5020439917     3.1819786414     7.3146794825
          2
Energy: -0.06469139218216242 Kcal/mole
 Xe     4.6098052474    -7.2781903239    -2.0834346498
 Xe     2.0458245348    -2.9307820630     2.4154917997
          2
Energy: -0.4250069175443454 Kcal/mole
 Xe    -0.5667609684     1.8445430015     4.5893409345
 Xe     0.7907711155     1.1714555689     0.5394208432
          2
Energy: -0.4304220951477169 Kcal/mole
 Xe    -0.7743305885     1.1202964296     2.2754615429
 Xe    -1.0380681760     1.6475601658     6.7128671617
          2
Energy: -0.43177195121479817 Kcal/mole
 Xe     4.3264871717     6.2518397061     1.1679400023
 Xe     4.3995800904     5.5282852510    -3.1501055044
          2
Energy: -0.4329999998282322 Kcal/mole
 Xe     4.0760158019     6.1160886322     1.2101408695
 Xe     4.5029761950     5.5098215799    -3.1440488549
