          2
Energy: -0.0011506834071589507 Kcal/mole
 Xe    -5.8459716429    -0.9290641706     3.8180937313
 Xe    -0.7435848553     6.0213334478    -6.3343792695
          2
Energy: -0.015677120077786242 Kcal/mole
 Xe    -2.3623638780     2.7554727736    -1.7896406734
 Xe     1.1937251788    -4.4358107648    -4.9060175430
          2
Energy: -0.002123695017278039 Kcal/mole
 Xe    -4.2536967382    -5.4170180362     5.4021807341
 Xe    -6.4472972186     5.2953001850     0.3977949878
          2
Energy: -0.3228785816304859 Kcal/mole
 Xe     1.0191700737    -4.3700466446    -0.3662137923
 Xe    -3.5419851884    -6.0861898654    -1.3155904342
          2
Energy: -2.7020678075542444E-4 Kcal/mole
 Xe     5.8198127437    -7.0086229460    -6.3449758616
 Xe     4.3448191231     5.8343070062     4.6323849841
          2
Energy: -0.003834824742004897 Kcal/mole
 Xe     3.4508247799     4.3948394469    -0.8036095594
 Xe     5.3771855516    -6.2643934433    -1.9800047594
          2
Energy: -1.9847566616904477E-4 Kcal/mole
 Xe     4.2205955474     0.6736778114     7.3249545322
 Xe    -7.4525811956     0.6957795376    -6.1847844254
          2
Energy: -0.41584552073395453 Kcal/mole
 Xe    -6.5556341299    -4.5550995787     5.5957639868
 Xe    -3.0920501617    -7.0614708225     5.3039492643
          2
Energy: -0.41331258012991323 Kcal/mole
 Xe    -4.9450346906     3.1266372997     7.2376293616
 Xe    -3.9597735200     5.9556403823     4.1851550649
          2
Energy: -0.4329999998474408 Kcal/mole
 Xe    -5.2847275200     3.2935476187     7.4444080647
 Xe    -3.8795696621     6.0493783012     4.2916482464
