          2
Energy: -0.04729373343228859 Kcal/mole
 Xe    -5.2491883260    -2.1926210484     0.8598498375
 Xe    -4.0193673893     4.8239797244     1.2950115488
          2
Energy: -0.03797019616073565 Kcal/mole
 Xe     2.0534306987    -0.6748562070     3.5386381740
 Xe    -3.6359054204    -3.1987044624    -0.4825973479
          2
Energy: -3.3296268074296283E-4 Kcal/mole
 Xe     4.1275720060     6.2248029533     2.3954578273
 Xe    -6.5216045248    -5.3211870926    -2.2477585099
          2
Energy: -0.015651275400688884 Kcal/mole
 Xe    -3.2751489632     1.3844433211    -3.3725109517
 Xe     3.0921075104    -2.6965906576     0.7404524123
          2
Energy: -0.004112065633999896 Kcal/mole
 Xe    -7.4410686138     4.4329948026     4.4404201299
 Xe    -5.8777726979     5.0367944806    -6.1976743878
          2
Energy: -0.41652605078877347 Kcal/mole
 Xe    -3.5166983771    -3.7114238160     0.3946335792
 Xe    -0.9214131216    -4.5617657444     4.0707195919
          2
Energy: -0.08178925410952662 Kcal/mole
 Xe     6.9146768819    -6.5588355460    -1.1342197850
 Xe     3.1376878807    -3.3636851264    -5.3345489871
          2
Energy: -0.3744798858747296 Kcal/mole
 Xe     5.4450436226    -6.3446990709     6.4929375233
 Xe     6.5365930439    -2.2673591334     4.2765092656
          2
Energy: -0.3776434492176476 Kcal/mole
 Xe    -0.7880853526    -2.6752630003    -2.2079832581
 Xe     0.6527334700    -1.2654697341    -6.5144692077
          2
Energy: -0.43299999951889223 Kcal/mole
 Xe    -0.0920535039    -2.3762470771    -2.0368154053
 Xe     0.7234718080    -1.5093907689    -6.2903068109
