          5
Energy: -0.18204995053280293 Kcal/mole
 He     2.4336619480     3.6871404579     2.1653172189
 He     1.2619798043     4.6052416718    -0.3005663784
 He     0.3568112908     2.1692763163     0.8820128176
 He    -0.2641927660     4.6704022142     2.1266695834
 He     1.9258223116     6.4787909525     1.7558752842
