          5
Energy: -0.006678030473734589 Kcal/mole
 He    -1.9044281653     7.1150027589     2.8147632212
 He     0.9109662120    -2.2826317404     1.4176226761
 He     3.3905512062     3.3625286230     4.2664836998
 He     1.9662654161    -5.9089035861     2.2536023101
 He    -7.1244300928    -0.1671279925    -4.8361323682
          5
Energy: -0.01301194385538976 Kcal/mole
 He     2.6815931712    -3.0328019786    -5.1672545740
 He    -0.1879944341     4.1485503382    -0.2222776626
 He    -4.5737238749    -4.1103314840     1.1897807184
 He    -7.3412581565    -2.1369448988     1.6617964611
 He    -1.1128825836     6.8564731986    -4.2328714588
          5
Energy: -4.5467512207795433E-4 Kcal/mole
 He     5.5062320324    -5.2909454661     4.4788825375
 He     6.2861853781     6.7567390782     1.6121378844
 He    -4.4039844913    -3.4914462327     0.3621654279
 He    -7.1898557471    -1.2259144657    -6.4539890939
 He     2.3384925783    -2.7967339777    -1.8297490954
          5
Energy: -0.035973217034555825 Kcal/mole
 He    -7.3326504120     2.0116372871     0.0178273961
 He    -5.7182142573    -0.3316354948     0.5172442473
 He    -1.8505161919     0.3624990468    -5.0436466779
 He    -0.8915537224     2.1681578017     1.5398124413
 He    -4.7423921436    -1.0438530867    -3.6283265627
          5
Energy: -7.724835127386278E-4 Kcal/mole
 He    -2.4766483720    -5.8642588454     2.6357536050
 He    -7.2605722345    -3.0953238216    -1.4379983456
 He     4.8307685835     5.1742114823    -0.4344850774
 He     6.2613232628    -6.1423421616     5.7332914012
 He    -5.6003671448    -3.4868814124     7.2230526059
          5
Energy: -0.05154779617226402 Kcal/mole
 He    -1.6841591883     7.3487668625    -0.5250564748
 He    -1.5750655292     4.2218356968     1.0062501245
 He    -1.5347012548     5.4775499882     3.4012214309
 He    -3.8258306702    -5.8382055945    -6.7952302358
 He    -3.3445133617     6.5564294622     5.3519318749
          5
Energy: -0.01721339130999843 Kcal/mole
 He    -2.0203383208    -6.7579877837    -5.6467439027
 He    -6.6046092414     3.2464367233     6.3551525492
 He     5.9081456808    -4.6829064446     3.8462664866
 He     4.1015288461     1.3910850717    -6.9923023988
 He     4.8679034821    -4.4669813824     6.7624452534
          5
Energy: -0.004383716782507958 Kcal/mole
 He    -6.5243684746    -3.6258930305     5.1976410487
 He    -5.7055185465     0.5030503429    -0.4678554006
 He     2.4138821155    -0.4342844532    -2.2523181449
 He     6.3543090765    -2.5391496177    -2.4402353226
 He    -7.3837089996     5.1960245036    -0.8570662902
          5
Energy: -0.019915928447668152 Kcal/mole
 He     6.6785161117     3.0592608214     5.4985915271
 He     5.2670392990     5.9186536306    -7.1366743568
 He     1.8132007316    -0.2633118863    -1.0019336485
 He     4.7389698772     3.0194534915    -6.6151165528
 He     1.0349221809     4.6079631124     4.8476256353
          5
Energy: -0.18202321869830176 Kcal/mole
 He     4.2060280068     4.4035295638    -1.4109511199
 He     4.3607998177     5.3889553747    -4.1032751535
 He     6.3847101659     3.6134347244    -3.1349880033
 He     3.7331843983     2.6360884391    -3.6203940771
 He     6.2180259892     6.2988044356    -2.1402939056
