          5
Energy: -0.08003523551012716 Kcal/mole
 He    -5.5076157252    -1.1010847005    -5.9640621759
 He    -4.8973483409    -0.0388036341    -3.3668952015
 He     2.9284221785     3.4782960937     3.4240658074
 He     1.4994482734     2.5869564900     5.7416096572
 He     4.0825622391     1.4930494655     5.1455677903
