          5
Energy: -0.0020761000714345948 Kcal/mole
 He    -0.5109561055    -2.9682655354    -4.1561368685
 He     2.9072486968    -2.5718151861     1.0731915617
 He    -3.9247730780    -3.6883092285     1.8946453853
 He     3.1635953306     2.4255731470    -2.8334104123
 He    -2.9950723904     3.2289973591    -2.9394076561
