          5
Energy: -0.18202321869830176 Kcal/mole
 He     4.2060280068     4.4035295638    -1.4109511199
 He     4.3607998177     5.3889553747    -4.1032751535
 He     6.3847101659     3.6134347244    -3.1349880033
 He     3.7331843983     2.6360884391    -3.6203940771
 He     6.2180259892     6.2988044356    -2.1402939056
