          5
Energy: -1.562456580820763E-4 Kcal/mole
 He    -7.2762811487     6.9762922272     3.6043653680
 He    -6.2972151051     6.5242197212    -4.6025193625
 He     5.7677782476     7.0890459157    -5.9632981494
 He     0.1740584988    -7.3879834075    -4.9774682591
 He    -6.1563236934    -2.3296488819     0.0633311436
          5
Energy: -6.127851400987518E-4 Kcal/mole
 He     4.9018685212     0.0759751150    -6.8153974501
 He    -2.0028187101     1.6713820576     3.4640261410
 He     4.8125408706     6.0965857378     2.7235572638
 He     0.0609877589    -3.4413821751    -7.4888988997
 He     5.2055127506    -5.1461404021     3.9790866528
          5
Energy: -0.0035202010686754153 Kcal/mole
 He    -5.5940685754    -6.1993421186    -6.3553036443
 He     6.0416449885    -4.2421323743     6.6926940513
 He    -2.5532518798     3.8275878447    -6.0918877959
 He    -3.0073530654    -5.9346291246     4.0018525717
 He    -0.2177402617     3.6940313396    -2.5004696427
          5
Energy: -0.01058230021109889 Kcal/mole
 He    -5.3536849271    -5.9793876707    -5.2618308886
 He     7.1601844323     6.9161449969     5.4949539228
 He    -4.5059003735     5.0578598426    -3.8773538149
 He     7.0500034828     2.6378688031     0.7214735217
 He     5.6860392070     0.1837712506    -1.3789348497
          5
Energy: -0.02007090620411776 Kcal/mole
 He     0.8707574717    -6.4837464385     4.4685035685
 He     1.2165968922    -4.5617077836     2.3857850963
 He    -1.7361643777     5.4529324010     5.9727185888
 He    -2.3621141851     4.8274050056    -6.9254310418
 He     7.0436758721     5.5528902369     5.8317597812
          5
Energy: -0.018700511012175906 Kcal/mole
 He     6.5930457775     2.2945947780     5.5460112097
 He    -7.1471741196    -7.1690589850     1.5755392006
 He     6.6241596396    -6.6835721966     7.2913791947
 He     6.6150548845     3.5258014353     3.0760504248
 He     5.1716457336    -6.8776813763    -4.6238207571
          5
Energy: -9.080211003083086E-4 Kcal/mole
 He     7.2724239856     6.9642916075    -3.6274889895
 He    -4.7294803624     7.4620735582     1.4336209344
 He    -6.9745571450    -5.2864206632     2.5032239942
 He    -2.2371387662     2.5137718380    -2.1330883094
 He    -4.2485621735     6.2616465253     7.1166508382
          5
Energy: -0.010158131002206052 Kcal/mole
 He     1.5947669130     6.4792015236    -3.2407778270
 He     2.1036006085     5.3050283090     2.7762353888
 He    -4.2827501654     1.1431572517    -3.0875958046
 He    -3.8735262908    -2.3832021929    -3.2295002351
 He     4.6839204046    -6.2273549701    -2.5325287945
          5
Energy: -6.308348903351009E-4 Kcal/mole
 He    -7.0595795778    -3.2473054702    -4.7118313830
 He    -6.6010665105     3.5301242498    -5.3950959208
 He     1.3468214815     0.9319739050     4.2234562681
 He     0.1148322745     6.9310616298     2.8586521935
 He     6.7241589908    -7.3875991939     1.9264543843
          5
Energy: -0.08003523551012716 Kcal/mole
 He    -5.5076157252    -1.1010847005    -5.9640621759
 He    -4.8973483409    -0.0388036341    -3.3668952015
 He     2.9284221785     3.4782960937     3.4240658074
 He     1.4994482734     2.5869564900     5.7416096572
 He     4.0825622391     1.4930494655     5.1455677903
