          12
Energy: -46.10515744063534 Kcal/mole
 H     -3.2419765492     2.4924789876    -4.6231710438
 F     -2.4598757913     2.9707274653    -4.6452118701
 H     -2.7151482086     1.2530244652    -0.3670353003
 F     -3.4980341619     0.7760807325    -0.3446018462
 H     -1.4214951324     2.8617584557    -1.2392858721
 F     -1.3592853631     2.1589642410    -0.6535391381
 H     -4.0121243623     0.0453273323    -1.7384450707
 F     -4.2402016405    -0.2475214421    -2.5769612306
 H     -4.5343617655     0.8819023496    -3.7513543499
 F     -4.5965212006     1.5841317524    -4.3377834338
 H     -1.9449255287     3.7002639302    -3.2510026323
 F     -1.7161803814     3.9923597223    -2.4124057650
