          12
Energy: -39.72415463806789 Kcal/mole
 H      0.8925915892    -0.1242677157     3.0409351308
 F      1.1967194063     0.6852841080     3.3459287627
 H      4.0065890812    -1.1152957092     2.4458320733
 F      3.8648520849    -1.7189400388     3.1214156337
 H      4.0047626575     1.0712913893     1.9852017126
 F      4.3878862560     0.3599439340     1.5515081502
 H      3.2738071719    -3.1948170867     1.8953993576
 F      2.6340234796    -3.2057804502     1.2385541461
 H      1.4315116491    -2.3572535157     2.0381458683
 F      0.9002017473    -1.8236621773     2.5614804380
 H      2.4012400429     1.9258166452     3.2550491647
 F      3.2568616819     2.2188174759     3.1035528806
          12
Energy: -38.12654948951209 Kcal/mole
 H      4.6407309722    -5.3331740309     3.9860990403
 F      5.2146862103    -5.9563855951     3.6352832325
 H      3.8151869011    -4.9108847538     0.1148625255
 F      3.9273831755    -4.0778809947     0.4814764004
 H      4.9862498059    -6.8128544553    -0.3362998375
 F      4.1853561214    -6.3702088671    -0.3956562976
 H      2.8725232488    -2.9303635555     1.7002702889
 F      2.6395831420    -2.6433761175     2.5394759353
 H      3.0441778076    -3.7113094477     3.6440944348
 F      3.2672681386    -4.2246069896     4.3704864348
 H      6.0859027562    -6.9567521603     2.0842243970
 F      6.2237906475    -7.2365173210     1.2218976698
          12
Energy: -41.56598959656844 Kcal/mole
 H      1.7061515624    -5.6988155853     1.8101154421
 F      1.9237998664    -5.5076339415     2.6801544038
 H      5.9966219970    -5.3305614747     1.7950258657
 F      5.8630676465    -4.5016155939     1.4263783888
 H      5.3549155570    -6.6330058144     3.2348990691
 F      6.0295483692    -6.7780633934     2.6309803101
 H      4.3046956882    -3.8196892007     0.9399323672
 F      3.5112502583    -3.6409855167     0.5163779514
 H      2.5958237689    -5.1139538658     0.0846166736
 F      2.0612848683    -5.8478059910     0.2135283566
 H      3.2399737100    -5.7098980736     3.9794764603
 F      4.1418910445    -5.7540770258     4.1391083553
          12
Energy: -39.43672357824502 Kcal/mole
 H      0.3301779186    -5.9225635074     3.2578777369
 F      0.4478887337    -5.3976096927     4.0004790138
 H     -3.2897454437    -3.6424618897     2.8700960285
 F     -3.3321445270    -3.5898233655     1.9555904225
 H     -2.5073975923    -4.5408057962     4.7189023117
 F     -2.8116208256    -3.6978450240     4.5245974975
 H     -2.6274211862    -4.8859859785     0.8089621181
 F     -2.1664086871    -5.6643560763     0.6589738967
 H     -0.4843233170    -6.7416942440     1.5019078781
 F      0.1887663279    -6.8741662066     2.1104228812
 H     -1.0087729666    -5.8284525945     4.7917316869
 F     -1.8786956635    -6.1108374360     4.8579306501
          12
Energy: -39.54704602429506 Kcal/mole
 H      0.6455484558    -3.7948109452     1.5446640915
 F      0.6581044636    -4.1581860499     2.3865012966
 H     -2.9879362146    -3.1949954802     2.3258422156
 F     -2.6026657850    -2.6639209274     1.6852054109
 H     -3.0016461601    -4.6430901278     3.8847150581
 F     -3.6992996830    -4.5593869213     3.2955102252
 H     -1.5052962090    -1.1978719156     1.5804459333
 F     -0.7407219302    -0.8828653475     1.1841051277
 H      0.2736558472    -1.9571116641     0.4902812590
 F      0.8234448859    -2.6314667480     0.2006845848
 H     -0.4018169561    -4.4574746310     4.0165433436
 F     -1.2201283092    -4.6416569574     4.3871272073
          12
Energy: -36.817344558432936 Kcal/mole
 H      1.8809538640     1.1516550969     0.9462117236
 F      1.5884057636     0.2958570366     1.0975863875
 H      0.4265086050     2.1864188543     6.0709846565
 F      0.2901700045     3.0733269141     6.2599155420
 H      0.5319534590     0.0319442625     4.9850097812
 F      0.4949916739     0.5287035390     5.7549143517
 H      1.1608891637     3.4449425459     4.9146706967
 F      1.4597469409     3.1622722615     4.0951156105
 H      2.7238148556     3.1542999107     2.3919641827
 F      3.0696047781     2.7702945651     1.6344298772
 H      0.6340946284    -0.6403342578     2.5343945031
 F      0.3367423407    -0.9576514568     3.3417236877
          12
Energy: -41.9965659732094 Kcal/mole
 H     -1.1480033077     0.3464786537    -1.5459262466
 F     -1.7484512098     0.5645702780    -2.2037920082
 H     -3.5448876592    -0.0339699357     2.2336241770
 F     -3.1401187661    -0.2505657789     3.0274361092
 H     -4.1083134208     0.2931924760    -0.2322353256
 F     -3.9507338754     0.3973070909     0.6651039825
 H     -1.5611282490    -0.3279454589     3.0580237553
 F     -0.6573087314    -0.3248215696     2.9031382463
 H     -0.3980518236    -0.0816469557     1.2138472610
 F     -0.4700364598     0.0291934790     0.3064214458
 H     -3.5894637365     0.6079288906    -2.1916781792
 F     -4.4662447529     0.5117833828    -1.9408792744
          12
Energy: -38.844005841941524 Kcal/mole
 H     -5.7628726935    -1.5371740572     1.0266709933
 F     -5.4710845381    -2.2067462523     0.4722147300
 H     -5.0506562277     2.4524206295    -1.8904594390
 F     -5.7454149945     2.9844995022    -1.6164314672
 H     -3.5895681280     0.3921383040    -1.2805485151
 F     -3.7022688681     1.2604358944    -1.5530312443
 H     -6.0564254908     2.6615985874     0.1394132516
 F     -5.7661868348     2.4409862214     0.9808291456
 H     -6.2141380995     0.7897294740     1.6272591177
 F     -6.2707032065    -0.0864866303     1.8917108662
 H     -4.0663234725    -1.9844094061    -1.1843345807
 F     -3.4134768809    -1.4174622288    -1.4897052179
          12
Energy: -39.94575584060972 Kcal/mole
 H     -5.2998265353     5.8361199918    -2.0134221999
 F     -4.5107601945     5.8842245591    -2.4781256111
 H     -3.1375967934     5.3442757629     2.5411369389
 F     -3.6087373215     5.9404657037     3.0544333029
 H     -1.6883111969     4.8997682792     0.4927765357
 F     -1.7481794347     4.7147583972     1.3889216900
 H     -4.6232360813     6.6646690083     2.0272491863
 F     -5.3437385167     6.9032980235     1.5126411474
 H     -6.2891041344     5.9127807312     0.2237719010
 F     -6.5312369235     5.6116524101    -0.6078424607
 H     -2.6754880815     5.5039012672    -1.6534667123
 F     -1.9145191894     5.4472786387    -1.1449303584
          12
Energy: -41.69673086496287 Kcal/mole
 H     -0.9257836483     5.5077303925     1.8033039693
 F     -1.4922380381     6.2281009757     1.8362379489
 H     -3.7784338208     2.7927512804    -0.6698385525
 F     -3.4657570499     1.9952834508    -0.3424743858
 H     -3.9651645877     5.1288753721    -1.0652444648
 F     -4.0836654257     4.3478891810    -1.5309773504
 H     -1.9399051726     2.1851520408     0.6748185083
 F     -1.5262115138     2.3698082287     1.4720942754
 H     -0.4047049471     3.4017504769     1.6783428726
 F      0.1365578003     4.1393015371     1.7411287950
 H     -2.6978128657     6.5580346094     0.6136339990
 F     -3.4004658216     6.4652360321     0.0317781340
          12
Energy: -40.60861053926159 Kcal/mole
 H     -0.5042234108     7.0140646018     0.3877607348
 F     -0.6143439101     7.0489403980     1.2974563731
 H      2.0667599232     3.7745665193     1.7547333260
 F      2.0097587246     3.3311515459     0.9540941908
 H      0.6395649563     4.9345265090     3.4937432892
 F      1.4429976912     4.5188161137     3.3435111094
 H      2.0466439639     4.4052846740    -0.1637707230
 F      2.0110475322     5.0724394642    -0.7918840726
 H      0.5878585586     6.3897419107    -1.0911872907
 F     -0.2563510937     6.7400476105    -1.1652479393
 H     -0.8563041774     5.9293988500     2.5845697782
 F     -0.9445040465     5.2756281953     3.2215106814
          12
Energy: -40.002652257177516 Kcal/mole
 H     -4.7730347160     5.0227312450     7.2102571503
 F     -4.7383245081     5.9366578022     7.2767586516
 H     -0.7872702233     6.1040923422     4.3097834467
 F     -0.0769893379     5.7597470651     4.7764914861
 H     -3.1223688332     6.3565183257     3.9364189642
 F     -2.4026126832     6.0360478893     3.4672294673
 H     -0.7940230582     4.5280400982     5.7790014169
 F     -1.2918051302     3.8872658112     6.2062136850
 H     -2.8560034410     3.4526814076     6.3836821878
 F     -3.7032718063     3.3558063977     6.7207883277
 H     -4.7005027215     6.6889605249     5.5932480536
 F     -4.2348966610     7.0509896834     4.8910836251
          12
Energy: -42.16165476995769 Kcal/mole
 H     -0.2164843818     1.1500951548     2.5360363355
 F     -0.8994855487     1.0481741386     1.9327034984
 H     -0.3513440877     5.6521897075     4.3552295152
 F     -0.2171118257     5.6983269152     5.2611776693
 H     -1.1071215388     4.4696414982     2.6356524097
 F     -0.5285644454     5.1692928920     2.7646819285
 H      0.0908204422     3.9796979465     6.2813099102
 F     -0.0171349706     3.0691014377     6.2743366056
 H      0.3623499089     2.2796359981     4.7661119365
 F      0.3962262383     2.0991324192     3.8676911819
 H     -1.8147130877     2.3824764371     2.2038674141
 F     -2.2267234671     3.1770868350     2.4031931846
          12
Energy: -41.14611675035728 Kcal/mole
 H     -0.0935078692     2.3591862076     3.3214103993
 F      0.1591325076     2.4177201225     2.4418448129
 H     -3.5397552572     5.9911445899     2.8374493354
 F     -3.9891464741     5.2858095796     3.2135331790
 H     -1.5074737747     6.4441599810     2.0537058958
 F     -2.2439160882     6.9894214816     2.0888002673
 H     -3.2050810703     4.0911972654     4.1098905837
 F     -2.7090939150     3.6986872659     4.7738345889
 H     -1.6243557117     2.6223199053     4.8027679778
 F     -0.8672918698     2.1174554440     4.6893871376
 H      0.0143443483     4.0989017594     1.8295767326
 F     -0.2559416133     4.9747096588     1.8013805916
          12
Energy: -38.049476269865295 Kcal/mole
 H     -3.9189628535     0.4504224197     3.8429945891
 F     -4.4566003930    -0.1096400499     3.3549731692
 H     -2.1763892390     1.3343442412     0.9842458907
 F     -2.2007386289     2.1421794296     1.4174876425
 H     -2.9173941097    -0.7369130142     0.4398807379
 F     -2.1385051501    -0.2637481004     0.5415466270
 H     -3.7880599032     3.8872488998     2.2986189097
 F     -4.2569782958     3.8376276957     3.0850934974
 H     -3.4688680410     2.5988486907     4.0297795259
 F     -2.9172692456     1.9194345000     4.3036848497
 H     -4.5994541590    -0.9446030971     1.8098118261
 F     -4.3713693734    -1.3061428715     0.9985441008
          12
Energy: -41.1846218110872 Kcal/mole
 H     -3.8735410632     0.0710047575     2.8191310704
 F     -4.7031619072    -0.3178262883     2.8569288599
 H     -3.8281000587     3.1479237830    -0.6252739308
 F     -3.4887834306     3.8368097419    -0.1240859804
 H     -4.1614750489     0.6872940667    -0.5821816478
 F     -4.1095941751     1.4877924242    -1.0264785695
 H     -2.1275826364     2.9354822638     0.3993792583
 F     -1.5215184968     2.2585742718     0.5233584061
 H     -2.0521614219     1.3421988948     1.5900115619
 F     -2.5259912125     0.9968789273     2.2950849266
 H     -4.7052161009    -0.6930505694     1.1554361528
 F     -4.4384956927    -0.8055481810     0.2853249465
          12
Energy: -40.68478309981734 Kcal/mole
 H     -6.7818505825    -1.9784494361     0.1640485723
 F     -7.2495409484    -2.7352294183    -0.0582997585
 H     -4.5264895154    -5.4640719464     1.9747539198
 F     -3.8143349305    -5.2129598561     2.4950111307
 H     -5.8027255434    -5.7856339539     0.0439681946
 F     -5.6573372678    -6.2741200097     0.8062887457
 H     -4.2599112173    -3.4903360125     2.8237339603
 F     -4.4448822243    -2.5924787452     2.8007763033
 H     -4.6532509770    -1.6624311075     1.4512023792
 F     -5.0065611079    -1.1929932455     0.7471505025
 H     -6.5623130857    -3.8716519923    -0.8195727113
 F     -6.0496387379    -4.5748868567    -1.1085618782
          12
Energy: -43.46448293771422 Kcal/mole
 H      1.2258148030    -4.4373048639     1.3360687923
 F      1.6118553911    -5.2639672100     1.4282155770
 H     -3.3024368074    -4.8703832430     1.9289417845
 F     -3.3159836129    -3.9723580148     2.1140260184
 H     -2.3009198069    -6.6371024582     1.1102068804
 F     -3.1441000475    -6.4490557178     1.4177365622
 H     -2.0943480810    -3.3550902222     3.1375681634
 F     -1.3826411238    -3.0199534273     3.6087852427
 H     -0.1123240042    -2.9459773563     2.2404095713
 F      0.3324628448    -3.0692558549     1.4480358775
 H      0.2387880100    -6.1242143337     1.0154728738
 F     -0.5671019006    -6.4973046076     0.7869250683
          12
Energy: -41.73269941247244 Kcal/mole
 H      0.6910657674    -2.9024274142     6.3807819708
 F      0.3594385491    -2.3654144298     5.7155531059
 H     -2.0944550392    -5.5575490465     3.9417427281
 F     -1.6284936737    -6.2698109682     4.2829933117
 H     -2.5721852524    -3.3330136791     3.6027528756
 F     -3.0584813366    -4.1077694282     3.5382652971
 H     -0.0792298231    -5.8296720744     4.3154816868
 F      0.7195946620    -5.3836336404     4.3772729270
 H      1.0882830687    -5.0435624582     6.0065943765
 F      0.9995808133    -4.6076998415     6.8084950494
 H     -0.4884451902    -2.2740386448     4.2427009218
 F     -1.0149817571    -2.4290842344     3.5081200149
          12
Energy: -41.08516562578082 Kcal/mole
 H      0.3268696516    -2.4753345097     0.1885495656
 F      0.5110807911    -1.9580277554     0.9229533906
 H      0.9719377603    -4.8761965633     1.4005125995
 F      1.7773017414    -4.9993299153     0.9796610395
 H     -0.6381314258    -3.6226207293     2.2760421359
 F     -0.4718020241    -4.4913776640     2.0342055822
 H      2.1218930268    -5.1138930322    -0.6994506928
 F      2.0512543165    -4.9483236796    -1.5986091672
 H      0.8932580178    -3.8078983097    -1.5511474599
 F      0.2030964167    -3.2344064750    -1.3622742753
 H     -0.3264308585    -1.8755655102     2.4673386241
 F     -0.9666308558    -2.2830094488     2.9821418879
          12
Energy: -42.229446709329096 Kcal/mole
 H      2.8269496323    -2.3818052946     1.3413036488
 F      3.0825415997    -3.2623866518     1.3295469699
 H      0.4044446447    -4.7025383978    -0.3844563012
 F      0.5316896458    -4.2366963110    -1.1640003088
 H      0.5169138358    -5.3373863412     1.7312022270
 F     -0.0119022135    -5.3828309493     0.9834205921
 H      0.7315698787    -2.4783681437    -1.4234752983
 F      1.1026272021    -1.6462698770    -1.3194659846
 H      1.5444129717    -1.0675604927     0.1862173324
 F      1.7053292914    -1.0005424174     1.0864970198
 H      2.6391298011    -4.7002166243     2.1543685037
 F      2.0250961256    -5.2596099342     2.5428665991
          12
Energy: -43.129526588524755 Kcal/mole
 H      3.8231519193     1.1159146488     0.6708753269
 F      3.7856158780     0.2502197838     0.9709627248
 H      1.8655042760     0.5736568591    -3.2627188503
 F      1.1990714385     1.2013746227    -3.3149364928
 H      3.1785194549    -1.2033193446    -2.4789161049
 F      2.7561784831    -0.8416538977    -3.2081041520
 H      1.1812354082     2.1004220079    -2.0016252605
 F      1.1753364026     2.5342264477    -1.1937466125
 H      2.7015609675     2.6070964137    -0.4741133119
 F      3.5634471502     2.6740806282    -0.1682467997
 H      4.1506913431    -1.0356327186    -0.1676026468
 F      4.1369293418    -1.4360856361    -0.9924281242
          12
Energy: -41.93715245613595 Kcal/mole
 H      3.1707642141     1.4840828515     2.0725995647
 F      3.6230128875     0.7223387349     1.8357324327
 H      3.5122315053     4.7031031061    -1.7539306037
 F      2.9007782705     5.3856567448    -1.7202486794
 H      4.4034810444     2.4221557106    -1.7195513822
 F      4.5762360776     3.2332525966    -2.1109163525
 H      1.6290373077     4.8027089095    -0.5655470416
 F      1.2703223115     4.1803298659     0.0044151304
 H      1.7873312913     3.3755348900     1.4140858487
 F      2.1795312500     2.8659553004     2.0678417927
 H      3.5258815537     1.0311346471     0.0770873622
 F      3.4173824366     1.2016931706    -0.8173547721
          12
Energy: -42.636895638393014 Kcal/mole
 H      1.5525419241     5.1808726539     1.9537166158
 F      2.3579776209     4.9271091657     2.3111609197
 H      2.6320144426     1.6410506273    -1.0342680984
 F      1.9584865948     1.5182714308    -1.6443291668
 H      3.9463050655     2.3160312785     0.9100051042
 F      3.8415940269     1.7905296212     0.1658461115
 H      0.6986309053     2.5609817390    -1.1720769313
 F      0.1300908882     3.0334095035    -0.6294322445
 H      0.1587002360     4.3102700578     0.3863742209
 F      0.0490689484     4.9055541188     1.0752188097
 H      3.6767788138     3.7703551277     2.5897919265
 F      4.2479126428     3.0748956189     2.4136351183
          12
Energy: -43.08639190534352 Kcal/mole
 H      2.9343477639     4.9157637805     4.2212588808
 F      3.5038481707     4.6227428428     4.8775339883
 H      4.6287841573     1.7196704459     1.4433684770
 F      4.3100445341     2.1562693972     0.7026422061
 H      4.4787205596     0.9162904505     3.7289272483
 F      4.4911168996     0.6439364249     2.8533939163
 H      3.0642061573     3.1698919415     0.6898156785
 F      2.3817074091     3.7180942513     0.9628700435
 H      1.9510093437     4.8147552605     2.2869900443
 F      1.8243841323     5.3177523151     3.0431970390
 H      3.9245285714     2.9944161032     5.0728522002
 F      4.2053919163     2.1224571887     5.1139913909
          12
Energy: -41.678523855991045 Kcal/mole
 H      2.9447369221     5.2425345644     4.1443879971
 F      3.3459764087     4.6926762164     4.7588403317
 H      0.2781197601     2.4068370363     3.4387510488
 F     -0.0024235552     2.9725952208     2.7738434425
 H      1.6612590626     1.5113545526     4.8615874576
 F      1.0797223721     1.1288900978     4.2645740420
 H      0.5155230722     4.1727832927     1.6485372896
 F      0.6255324583     4.9719614238     1.2125312693
 H      1.2270255376     5.9421880945     2.4694074648
 F      1.6474803761     6.1856719139     3.2471107234
 H      2.5586159397     3.5430091929     5.6876883279
 F      2.2308402953     2.7037779507     5.8584016812
          12
Energy: -42.75545943242966 Kcal/mole
 H      1.6462146062     2.9404374591     3.3190546816
 F      1.4225826580     3.6645075604     3.8353881398
 H     -0.7164407223     3.6892136544     0.6292894999
 F     -0.0769645893     4.0407119984     0.0739443914
 H     -1.7760724130     3.5997485849     2.4094715206
 F     -1.9269315340     3.2922519551     1.5588386102
 H      1.5337677961     3.1816025090    -0.2152579378
 F      2.1740784776     2.5926300542     0.0745742184
 H      1.9315094062     1.8756873051     1.4291059302
 F      1.7497199177     1.5864908595     2.2801094541
 H     -0.2078563179     3.7083359053     4.1049771868
 F     -1.0820116018     3.9510590984     3.9714594308
          12
Energy: -44.18811645910813 Kcal/mole
 H      1.7091381391     1.2550048561     3.1038249355
 F      2.5147919051     1.6928388276     3.1144278897
 H     -1.0345895299     4.8571898394     3.5367892773
 F     -1.8769028295     4.5294504232     3.3819210099
 H      1.2125103208     4.4248836531     4.4655278094
 F      0.5761972697     4.9642708698     4.0846654569
 H     -2.0018639209     3.0836321481     2.6306653364
 F     -2.0013333913     2.2261591842     2.3056594369
 H     -0.6059605474     1.0606643457     2.6012625275
 F      0.1255699842     0.6117511898     2.9241077841
 H      2.5647628784     2.6815922619     4.3916083432
 F      2.2876667908     3.2659130669     5.0417436791
          12
Energy: -42.31783128094034 Kcal/mole
 H      1.0921354170     2.9663388686    -2.1370540950
 F      1.3574405360     2.2218244363    -2.6020277007
 H     -2.0306230553     2.1894873935    -0.2227741114
 F     -2.0135233935     2.6018834951     0.5960824431
 H     -1.9744600560     1.1206793974    -2.4348990474
 F     -2.4597312678     1.4537854903    -1.7317339303
 H     -0.8514318005     3.8748026603     1.3940580071
 F     -0.0373314859     4.2792872700     1.2735512504
 H      0.4212495173     4.1131183932    -0.3120705678
 F      0.5228879540     4.1348986193    -1.2231601627
 H      0.1620677892     1.0317370962    -3.0297431397
 F     -0.5265836874     0.4412627492    -3.1638631952
          12
Energy: -43.885132365327706 Kcal/mole
 H     -0.1644918631     1.7578136952    -3.4762682191
 F     -0.3202753678     2.4127807925    -4.0988745161
 H     -4.2601587053     2.2837341503    -1.0716579061
 F     -3.7489897513     1.8146927297    -0.4719951291
 H     -3.9347764842     3.1320468301    -3.5088513827
 F     -4.4584124584     3.0706308494    -2.7585698062
 H     -1.9820524888     1.5711657489    -0.1874900739
 F     -1.0724110679     1.4776707283    -0.1189323134
 H     -0.2746445864     0.7471847185    -1.4240046244
 F      0.0427829807     0.5392983336    -2.2588171726
 H     -1.8900413442     3.0417113258    -4.5103867870
 F     -2.7719499976     3.2080660578    -4.6986744134
          12
Energy: -42.38653460458295 Kcal/mole
 H     -1.9469127751    -1.5023329037    -5.8743946078
 F     -2.0045245293    -0.6706836403    -6.2564016609
 H     -6.1940189856    -1.7863691351    -4.0266073029
 F     -6.1395680087    -2.6600984980    -3.7536217876
 H     -5.2748312618     0.3280545499    -4.8111156000
 F     -5.9828141689    -0.2356557852    -4.6631971718
 H     -4.5181709909    -3.3405813606    -3.3972165925
 F     -3.6775722414    -3.6048765577    -3.6510488030
 H     -2.2594681111    -3.0834798310    -4.2701054313
 F     -1.5436099574    -2.8465676385    -4.7919375085
 H     -3.0232050244     0.6004720196    -5.5299772377
 F     -3.6419956065     1.1270964748    -5.1049432406
          12
Energy: -44.15830269874505 Kcal/mole
 H     -0.7471043072    -0.2075727745    -6.7906117002
 F     -1.4514260843     0.3122341461    -6.5174439870
 H     -0.4856052843    -1.7719371877    -2.2981621243
 F     -0.0567209927    -2.4993685899    -2.6556405426
 H     -1.0956946017     0.2100310336    -2.3020559240
 F     -0.9942788907    -0.3796360865    -1.6071483466
 H      0.8589277265    -2.3205321757    -4.0454154721
 F      1.2033672249    -2.3660466177    -4.8940490016
 H      0.9209417283    -1.6000994025    -6.3955734640
 F      0.5566426461    -1.1709773847    -7.1194722639
 H     -1.3728060316     0.6548176258    -4.9084445058
 F     -1.3187136672     0.7580272149    -3.9988782373
          12
Energy: -44.06074113040418 Kcal/mole
 H      0.8298390277    -2.1361421138    -4.1458587398
 F      0.1954530024    -2.4402071829    -4.7340660201
 H     -1.8799135994     0.5542179431    -1.9555923184
 F     -1.3927767672     0.3387029359    -1.2091742128
 H     -2.4746905078    -0.2799400922    -3.8263022966
 F     -2.5146006915     0.6109922728    -3.6129113448
 H      0.2294322440    -0.1978853566    -0.9271170453
 F      0.9745684344    -0.7236119417    -0.8308226244
 H      1.6728460930    -1.2531294431    -2.1522933870
 F      1.9206100767    -1.4854132368    -3.0040834126
 H     -1.2646119235    -2.1521404318    -4.1810037314
 F     -2.1003531331    -1.8748787443    -3.9249732891
          12
Energy: -43.55974707573179 Kcal/mole
 H      0.1838968824    -1.6389762614    -0.9305768112
 F     -0.6679245209    -1.7268177636    -1.2585602978
 H     -0.8020716993     2.2138237034     0.8564994004
 F      0.0701473441     2.0613842925     1.0950055140
 H     -2.5082027274     1.0696358600     0.2018629663
 F     -2.3811567566     1.9755034696     0.2663004942
 H      1.3550164102     1.2490526924     1.3621501401
 F      2.0626815984     0.6700987978     1.4322313027
 H      1.9403786401    -0.5486062213     0.3102890590
 F      1.7572900353    -1.1886540466    -0.3203505720
 H     -2.1512823572    -1.1914032141    -0.5168239132
 F     -2.6495035000    -0.6173410941    -0.0038742323
          12
Energy: -43.847234208947 Kcal/mole
 H      3.9782990737     5.4704048491    -1.0684191180
 F      3.5568626813     6.2790427285    -0.9715421488
 H      1.8035429713     3.2101713886     2.5429457042
 F      2.5221341830     2.6603159076     2.6918571562
 H      0.6730045582     4.8272305800     1.5561206795
 F      0.5472813152     4.2057959096     2.2186171826
 H      3.3084763058     2.1020911753     1.2481933833
 F      3.7497541609     2.1213725253     0.4445821065
 H      4.5550154209     3.2368714648    -0.6456284783
 F      4.5942744721     3.9415964676    -1.2310432008
 H      2.3019974515     6.1504441975     0.0267736641
 F      1.5520711484     6.0000948642     0.5326339391
          12
Energy: -43.40821835301759 Kcal/mole
 H      7.4516761123     4.6728639690    -0.1336057792
 F      7.3134944510     5.5783143271    -0.1778152538
 H      3.9678972646     3.3864669333     3.0595710692
 F      4.0569603599     2.6338913566     2.5432506586
 H      4.5482947562     5.3189920372     2.8522729250
 F      4.3471879122     4.9562662481     3.6701207343
 H      4.5798196853     2.4496488637     0.9641913993
 F      4.8685920442     2.2743484193     0.1116837577
 H      6.3842252857     2.6964371480    -0.1974593555
 F      7.2505703839     2.9931589059    -0.1495911080
 H      5.7872122633     5.8668737541     0.6780429083
 F      5.0040349840     5.7606951879     1.1430681349
          12
Energy: -44.83554443939195 Kcal/mole
 H      6.8183982812     5.0781157992    -2.5263131320
 F      6.2762027012     5.7830394725    -2.3027162451
 H      3.3501193915     2.3221209967    -1.3731292609
 F      3.8145444442     1.6505918962    -1.7905583417
 H      3.4702764509     4.3895494791    -0.4865819934
 F      2.8851758642     3.6910305498    -0.5896237760
 H      4.8695513503     1.5902414987    -3.1417838099
 F      5.4579591172     1.9292327940    -3.7580225635
 H      6.7336402135     2.8506879958    -3.1965551049
 F      7.3529894645     3.4375519893    -2.8605697504
 H      5.1363198552     5.7622961876    -1.1452122947
 F      4.5351433010     5.6445604191    -0.4628531228
          12
Energy: -43.717177780348905 Kcal/mole
 H      6.4754820420     4.9795576009    -2.5800716913
 F      6.5035115429     5.6152813230    -1.9198000075
 H      3.4712888627     2.5840208539     0.5789224503
 F      3.0016273314     2.2401947175    -0.1296610903
 H      5.2639217399     3.9386422353     1.5112833175
 F      4.6595219185     3.2845250093     1.7297335648
 H      4.0647973159     1.9602320960    -1.3844079249
 F      4.7067765015     1.9819462486    -2.0388391443
 H      5.4971669724     3.1211117533    -3.1439304394
 F      6.0025595463     3.6706816666    -3.6763215144
 H      6.4262032328     5.4575252329    -0.1751416828
 F      6.1603406798     5.2473826808     0.6769417701
          12
Energy: -44.618281804850696 Kcal/mole
 H      5.7288353697     4.1608178732    -3.3625266622
 F      5.7264210069     5.0540122609    -3.1549526836
 H      4.4913404824     2.5223777513     1.1365821281
 F      4.2134208504     1.7237598181     0.7818159023
 H      5.3682496890     4.6763975331     0.8394173952
 F      5.0931928883     4.0616788614     1.4617948620
 H      5.4038329277     1.3491928454    -0.4387590616
 F      5.9884583145     1.5002915057    -1.1288832185
 H      5.8656334712     2.1659243602    -2.7287618141
 F      5.7092388300     2.5646475409    -3.5395944364
 H      5.8673770150     5.3659198157    -1.5280859089
 F      5.9887017785     5.4570953505    -0.6237318170
          12
Energy: -44.6498432752973 Kcal/mole
 H      5.1119490685     1.5976038761    -3.7602644959
 F      5.3183377324     2.3863664177    -4.1799624496
 H      5.0301721939     3.9245892119    -0.3503359203
 F      5.2895929202     3.1814485162     0.1201232100
 H      4.7298039783     5.1160775831    -2.2565085159
 F      4.8079741166     5.2055886865    -1.3472416729
 H      5.0296674149     1.4347635180     0.0644707228
 F      4.9187363891     0.5736299350    -0.2305415814
 H      4.6465762866     0.3786488405    -1.7798027586
 F      4.5797006931     0.3273846969    -2.6929230369
 H      4.5972030867     3.8474929938    -4.0017848828
 F      4.3027741232     4.6826427334    -3.7636137301
          12
Energy: -45.136185057404745 Kcal/mole
 H      4.6170998931     2.0907533405    -3.3507606395
 F      5.1595595986     2.7895436166    -3.5922531198
 H      3.6077484662     2.9251972369     1.3030231702
 F      2.7937017962     2.5075404801     1.3645036761
 H      5.3176705995     3.9505001507     0.1152721447
 F      5.0645289674     3.7094060204     0.9630232488
 H      2.3380646187     1.3830682264     0.1606482878
 F      2.2211775743     0.8370876407    -0.5667660501
 H      3.3516630091     0.6755683584    -1.8887143666
 F      3.9358676150     0.7521664995    -2.5913712553
 H      5.5794425383     3.8153302460    -2.3036282305
 F      5.6451649237     4.3062179241    -1.5318777167
          12
Energy: -45.469102893266495 Kcal/mole
 H      2.0465075008     3.0454423749    -2.9312277463
 F      2.6424371408     3.6888949589    -3.1990441693
 H      3.9000170758     2.6836912090     1.2315525921
 F      3.1308293757     2.3579423869     1.6098738669
 H      4.6832737984     3.9582505275    -0.4037458654
 F      5.0330751365     3.2701399619     0.0912610774
 H      2.2449969926     1.4173148856     0.6687483226
 F      1.7675428297     0.8921588693     0.0881127390
 H      1.2114337925     1.4654732078    -1.4181092183
 F      1.0354128571     1.9218830078    -2.1937352395
 H      3.4532685427     4.6164613699    -2.1499170615
 F      3.8924528781     4.9949924736    -1.4394803486
          12
Energy: -45.49675625298235 Kcal/mole
 H      2.3414840391     3.2985566796    -2.8920633882
 F      3.1763454711     3.6777666457    -2.9018199708
 H      3.9123775483     1.8551102563     0.7184312068
 F      3.3156146769     1.1626714495     0.7911744133
 H      4.6747672332     3.8788702713     0.0801193130
 F      4.9063818350     3.1489925805     0.5846212781
 H      1.7500905345     1.3712601577     0.2112937507
 F      0.9687204625     1.5428819996    -0.2369202092
 H      0.8340880175     2.2288603291    -1.7495019393
 F      0.9005200344     2.5961882646    -2.5870853531
 H      3.7780723328     4.7382826025    -1.7201292304
 F      4.0343735696     5.0386509230    -0.8924955264
          12
Energy: -45.467799861054544 Kcal/mole
 H      4.0458401718     2.6583128994    -2.5958427932
 F      4.6844523086     3.3096442070    -2.5018690387
 H      4.4326363370     0.7966519599     1.3992851390
 F      4.3943457423    -0.0833951776     1.1444521228
 H      4.6664566539     2.9922341324     1.2094095840
 F      4.5327833667     2.3469168261     1.8470505696
 H      3.4629617401    -0.4706124515    -0.1602351407
 F      2.9949584238    -0.5105242247    -0.9478066906
 H      2.8529429478     0.6826051236    -2.1161901313
 F      2.9367534058     1.4005255170    -2.6805084066
 H      4.8150466689     3.8786069915    -0.9830151929
 F      4.8498492575     4.0733646240    -0.0876117953
          12
Energy: -45.35221635040665 Kcal/mole
 H      3.5004151749     2.9912083434    -2.9172617906
 F      3.3684349664     3.8007877730    -2.5073210977
 H      3.7858583538     0.4941876564     1.0914345857
 F      4.2426874793    -0.2167591680     0.7354138519
 H      2.9709367905     2.6817409249     1.0973017611
 F      2.9729820781     1.8879187628     1.5563564330
 H      3.8272238451    -0.4259265316    -0.8865460877
 F      3.4126806838    -0.4590131198    -1.7038270952
 H      3.7322590256     0.6983392887    -2.9380360858
 F      3.8327942325     1.4261655141    -3.4867169201
 H      3.1830619954     3.9920797506    -0.8994768985
 F      3.0657580538     3.9566443754     0.0092987171
          12
Energy: -45.34295186160645 Kcal/mole
 H      4.2233416910     2.8716681416    -2.9436411707
 F      4.2545664236     3.7439843423    -2.6626101012
 H      3.7744503810     1.1357122605     1.2291967490
 F      3.9564388067     0.3842187099     0.7362194103
 H      3.2275413259     3.2713042883     1.0272720917
 F      3.2789050564     2.6434437729     1.6936368119
 H      3.3026957468     0.1164572831    -0.7161102039
 F      3.0075718490    -0.0297902139    -1.5719154122
 H      3.7795104003     0.7132447528    -2.8336118125
 F      4.2180515195     1.2732408706    -3.4123820906
 H      3.6914556877     4.1999814863    -1.1649222804
 F      3.3182339629     4.2537847859    -0.3290396636
          12
Energy: -45.80180851834447 Kcal/mole
 H      3.6264099492     2.7716405516    -3.2221889732
 F      3.2315597946     3.5286983879    -2.8877554402
 H      4.5364541480     0.8412528386     0.8164687757
 F      5.0476239942     0.1500098281     0.4974429323
 H      3.5251320679     2.9297360576     0.6447382843
 F      3.5116914767     2.1331403389     1.0987686923
 H      4.9408594701    -0.3675346192    -1.0486190606
 F      4.7970649299    -0.5491394278    -1.9358799150
 H      4.4976547215     0.5936766394    -3.1026218411
 F      4.2968396025     1.3280458786    -3.6137618498
 H      3.4669013984     4.0268635228    -1.3212879174
 F      3.6303475627     4.2038483253    -0.4364993941
          12
Energy: -45.99104024455343 Kcal/mole
 H      3.3928906951     2.7427679673    -3.2397953140
 F      2.7899632741     3.3487027291    -2.9078155114
 H      4.7876389178     1.1809671258     0.6340868175
 F      5.3437443057     0.5552554352     0.2597598512
 H      3.5627720178     3.1108767554     0.5710165811
 F      3.7214940299     2.3547290387     1.0649163212
 H      4.8801487758    -0.1383066123    -1.1831829818
 F      4.5698277948    -0.4047131458    -2.0039249922
 H      4.5126968114     0.7863543977    -3.1559211729
 F      4.4813627417     1.5662735770    -3.6372040938
 H      3.0992728021     4.0302041771    -1.4453986872
 F      3.3204978119     4.2884072353    -0.5937651534
          12
Energy: -45.93896484157753 Kcal/mole
 H      3.1261518282     2.6685639766    -3.2987048579
 F      2.7224082521     3.3586966594    -2.8497093069
 H      4.5563848628     1.2121908623     0.5606133353
 F      5.1088904311     0.5745265751     0.2014325258
 H      3.5672260213     3.1359272895     0.5637466113
 F      3.5746263784     2.3986497944     1.1089586160
 H      4.7246019064    -0.1762521103    -1.2287919571
 F      4.4480653829    -0.4597827429    -2.0558511639
 H      4.1716598691     0.6489049618    -3.2634133553
 F      3.9489850835     1.3320297434    -3.8331900419
 H      3.3103349656     4.0116823315    -1.4423737884
 F      3.6561617526     4.2676223439    -0.6325666858
          12
Energy: -46.04786928096689 Kcal/mole
 H      3.1344570420     2.6580606186    -3.2741766277
 F      2.7219676797     3.3592538383    -2.8510104729
 H      4.5894239374     1.1904994623     0.6010637752
 F      5.1290557140     0.5724806516     0.1915038950
 H      3.5749488871     3.1369356657     0.5650656503
 F      3.5742166982     2.3985963024     1.1088886440
 H      4.7250451980    -0.1663039886    -1.2324220878
 F      4.4480418673    -0.4603104678    -2.0556585938
 H      4.1398735217     0.6377808643    -3.2653795712
 F      3.9506712758     1.3326198511    -3.8330857387
 H      3.2975307626     4.0359928876    -1.4514152638
 F      3.6437643752     4.2773377629    -0.6373121151
