          12
Energy: -43.78883160779361 Kcal/mole
 H      7.1447345414     2.3995759578    -1.3899454487
 F      7.1537616715     1.6113689803    -1.8584934949
 H      3.8439623810     1.3968545079     0.8186770171
 F      4.3478597199     1.7948933839     1.4733078482
 H      3.9109750038     0.4705985954    -1.5236161064
 F      3.3923226389     0.5629703292    -0.7730455320
 H      4.7855842557     3.5482495468     1.4153021351
 F      5.0891531442     4.2775561141     0.9496339476
 H      6.3297588948     4.0899212734    -0.0223502314
 F      7.0381825334     3.8407456469    -0.5485977543
 H      5.8132522090     0.8503358664    -2.3754730091
 F      5.0650177674     0.3836390286    -2.6269253544
          12
Energy: -42.58261293158955 Kcal/mole
 H      4.6304698652     0.4075227170    -4.5083502984
 F      5.5066393810     0.3296724494    -4.7674937249
 H      5.3599237584    -1.0222137534     0.0724902687
 F      4.5850669065    -0.5487631185     0.2002805477
 H      6.9029379963    -1.7339268345    -1.5248370795
 F      6.5773223805    -2.0111533268    -0.7136595757
 H      3.1918839138     0.5022368093    -0.3913391734
 F      2.7556271074     1.0172093710    -1.0121227586
 H      3.0472994047     0.8574430098    -2.6071965927
 F      3.1218965737     0.6499232993    -3.4972863815
 H      6.7416838440    -0.3204894221    -3.5860640403
 F      7.3189994597    -0.6419270685    -2.9502389705
          12
Energy: -43.37467063582439 Kcal/mole
 H      4.5722865772    -4.5980202056    -3.1325715142
 F      5.0857914543    -4.1827155071    -3.7687505366
 H      4.2795739153    -1.2303736113    -2.0357600358
 F      3.8380947079    -1.6341148455    -1.3407937594
 H      5.5751295205    -0.9912603527    -3.8088982631
 F      4.7833731908    -0.6413890541    -3.5062417104
 H      2.3859097237    -2.7011488204    -1.0604806771
 F      1.8302071848    -3.4265401280    -1.1372344340
 H      2.7840643150    -4.5717438433    -1.7733735838
 F      3.4741223996    -5.1483927765    -1.9527749433
 H      6.1905567425    -3.0372376933    -4.0340399654
 F      6.7199456093    -2.2887517297    -4.0139106335
          12
Energy: -43.62704142332309 Kcal/mole
 H      4.9747999143    -0.7620703174     0.5414337769
 F      5.6457328798    -0.6407291606    -0.0717662553
 H      3.1027470509    -3.5105021220    -2.6494253921
 F      2.4919231955    -3.4813773080    -1.9660989965
 H      4.9698032843    -2.5642929886    -3.2921555151
 F      4.3518160073    -3.0956589010    -3.7124304162
 H      2.1894544869    -2.3949555738    -0.5825547884
 F      1.9682832961    -1.8571900648     0.1265154209
 H      2.9657293310    -1.2810868977     1.1819126442
 F      3.6789650290    -0.9182207491     1.6296983041
 H      5.9928249860    -1.2069170938    -1.5721923499
 F      6.1128940955    -1.7466606061    -2.3037313782
          12
Energy: -44.40886180487681 Kcal/mole
 H      4.0632876496    -0.3604952639    -2.6141035603
 F      4.9247340393    -0.2005169942    -2.3435373561
 H      4.1093392684    -2.7663321179     0.4593281905
 F      3.2558727062    -2.5539355894     0.7188884763
 H      5.9704806566    -2.7800631258    -1.1240933485
 F      5.6272275123    -3.0804253944    -0.3285754124
 H      2.0123561244    -2.7319049059    -0.4512416234
 F      1.5779875237    -2.8125427637    -1.2548027316
 H      2.2210133774    -1.8361017144    -2.3300971341
 F      2.5801634459    -1.2378072506    -2.9250290318
 H      6.1547282207    -1.3453227538    -2.5787644067
 F      6.5958062611    -2.1471165645    -2.5198929593
          12
Energy: -43.71845188626342 Kcal/mole
 H      2.2787122202    -4.9641255275    -2.4245057828
 F      3.1297447110    -5.1950904048    -2.1729348682
 H      3.3235973213    -0.4893731415    -1.1390886533
 F      2.5956106116    -0.3070791352    -1.6660547297
 H      4.5994765719    -1.8604887005    -0.2764272383
 F      4.4158354878    -1.0095251092     0.0117149463
 H      1.5573918605    -1.2083021858    -2.5392131233
 F      0.9852473825    -1.7149662084    -3.0459983486
 H      0.7147181730    -3.3655372782    -3.2685939825
 F      0.8568021812    -4.2525931491    -3.0846564484
 H      4.1675268185    -4.1425605509    -1.2842057966
 F      4.6479582505    -3.5229582835    -0.8086349088
          12
Energy: -44.87736707979647 Kcal/mole
 H     -0.9304907909    -4.6475989909    -1.3472493826
 F     -0.8955391673    -5.1992418193    -2.0789307162
 H      2.6109121898    -1.8203765587    -2.4863098592
 F      2.5055924015    -1.2895161656    -1.7460504552
 H      1.5746958174    -2.8833703949    -4.0676382351
 F      2.4229442327    -2.5648295241    -3.9265873951
 H      0.8665662024    -1.1550656863    -1.3973430010
 F     -0.0437662067    -1.2272307900    -1.3138199337
 H     -0.6277864830    -2.5787745838    -0.6152732670
 F     -0.9362788525    -3.3740406255    -0.2787121569
 H     -0.2155023577    -4.3603623568    -3.3476782201
 F      0.1566407462    -3.7852803806    -3.9573332298
          12
Energy: -44.129151311180664 Kcal/mole
 H     -2.0939736491    -2.9598613617    -1.8413420817
 F     -2.2758798375    -2.5715701568    -2.6519153843
 H      1.4592727716    -1.6000551233    -2.9723591365
 F      1.3967931534    -1.2371105338    -2.1325636125
 H      0.5889332995    -3.2272099404    -4.3893544994
 F      1.1650372600    -2.5137741303    -4.3877508817
 H      1.2262954708    -2.2220821274    -0.7546467120
 F      1.0589034183    -2.8403888244    -0.0984716369
 H     -0.5223134209    -3.3137242071    -0.2312323280
 F     -1.4004684572    -3.4652377360    -0.4475108123
 H     -1.3800633580    -3.5015152726    -3.7622236450
 F     -0.7352340477    -4.0896858958    -4.0435410434
          12
Energy: -43.54744741756875 Kcal/mole
 H     -2.1268455920    -3.2878972928    -2.5109048919
 F     -2.5428188899    -3.6766129155    -3.2297618875
 H     -3.0168239713     0.8019370784    -3.6999536567
 F     -2.9008101404     1.1191890240    -2.8474391442
 H     -3.0451537741    -0.8668503766    -5.1729401078
 F     -3.1554910279     0.0434571069    -5.1655255279
 H     -3.0950119722    -0.0216265726    -1.5362162250
 F     -2.9415739628    -0.6573656123    -0.8934241508
 H     -1.8210924993    -1.8907572528    -1.1766293312
 F     -1.3223659276    -2.6354071022    -1.3706844995
 H     -2.5562707650    -3.0292755527    -4.6883543336
 F     -2.6586917324    -2.5048227246    -5.4335711990
          12
Energy: -44.272052558010614 Kcal/mole
 H     -6.3152871578    -1.0470303624    -0.4847100168
 F     -6.8385211120    -1.6125450666    -0.9820110810
 H     -3.7039766091    -1.5447527917    -3.4932603592
 F     -3.1177700783    -1.9220268324    -2.8975127603
 H     -5.6340250031    -1.4858508773    -4.2538771843
 F     -4.8876628946    -1.0448338888    -4.5527695040
 H     -2.9472456934    -0.8589536107    -1.7100050630
 F     -2.9754659574    -0.2509969451    -1.0240886618
 H     -4.4404846568     0.1610866593    -0.1548900919
 F     -5.3371046768     0.1436914465     0.0365751694
 H     -6.9170018417    -2.0199913676    -2.6486072332
 F     -6.9401271620    -2.1600564394    -3.5545520412
          12
Energy: -43.77060167240617 Kcal/mole
 H     -6.6766482395     2.4568743263    -3.4014806117
 F     -6.8793301397     1.5674488506    -3.3080388086
 H     -3.4025357163     2.4886286976    -6.7956518736
 F     -3.1285123482     3.2008339740    -6.2871601451
 H     -4.8806830006     0.5843848923    -6.5703780154
 F     -4.2302544164     0.8686967891    -7.1508936502
 H     -4.0153372248     4.5776995834    -5.6795723463
 F     -4.7152768743     5.0918777402    -5.3853032346
 H     -5.5968307421     4.4565933238    -4.0811272441
 F     -6.1193202853     4.0733426459    -3.4322724104
 H     -6.4380202162     0.5828264306    -4.5707483758
 F     -6.0886590488     0.1180831976    -5.2798671967
          12
Energy: -43.570357136504526 Kcal/mole
 H     -6.5243156793     6.0434994615    -0.8397944262
 F     -7.2166800291     5.6493856658    -0.3857075148
 H     -6.0262985407     2.5090894959    -3.8413850000
 F     -5.2967681943     2.9176993441    -4.2178321619
 H     -7.0765227998     2.2407441106    -2.0432208124
 F     -7.2053948179     2.0000238981    -2.9186263083
 H     -4.7093487051     4.4041622363    -4.0668040358
 F     -4.5376266531     5.3032061248    -4.0109414956
 H     -4.8774195411     5.9894205529    -2.6171715461
 F     -5.1354946249     6.3518925466    -1.8153609046
 H     -7.1555714901     3.7929048944    -0.3521864206
 F     -7.0769569099     2.9169274359    -0.6117480509
          12
Energy: -44.715417705075694 Kcal/mole
 H     -5.6683813236     4.4319843737    -0.1049726119
 F     -5.3919957830     3.5576749608    -0.1140876276
 H     -5.1730388310     5.6269002628    -4.4295953188
 F     -5.9170207607     6.1495861100    -4.5486725771
 H     -3.9975084321     3.9262376313    -3.5142643245
 F     -3.9397181991     4.5303751856    -4.2016994884
 H     -6.5966882843     6.9425924393    -3.3010318111
 F     -6.8077735989     7.3262955766    -2.4953619702
 H     -6.4123904797     6.6129363156    -1.0730392755
 F     -6.0558773831     6.1898348906    -0.3417578002
 H     -4.5843844519     2.9801537128    -1.5430978293
 F     -4.1536561311     2.7707688611    -2.3250953341
          12
Energy: -44.24517828553678 Kcal/mole
 H     -5.9618355478     2.9345285580    -0.0618564541
 F     -5.4570540381     2.1689813822    -0.0571501764
 H     -3.1982726685     5.1032213899    -3.0496605934
 F     -3.1845253765     5.8745993552    -2.5540034070
 H     -3.8507154620     2.8958283531    -3.2981199608
 F     -3.3005178572     3.5494531785    -3.6312058104
 H     -4.7494269049     6.2648511291    -1.6966474812
 F     -5.5349644958     6.3513866125    -1.2315331905
 H     -6.2595982054     5.1643793080    -0.5778020470
 F     -6.6458662242     4.4219873254    -0.2029151817
 H     -5.0792503024     1.7314641080    -1.6513774844
 F     -4.9062677229     1.8017856796    -2.5491641538
          12
Energy: -44.1543898931248 Kcal/mole
 H     -6.8501667536     2.3010143363    -3.1291909149
 F     -6.4876090134     1.4923222420    -2.8936957310
 H     -3.9951098847     5.6142055558    -2.2574013634
 F     -4.4102608416     6.4234147087    -2.3745304797
 H     -3.3845733361     3.2458461474    -2.3573669043
 F     -3.1446168504     4.1165253697    -2.1985349905
 H     -5.9587465896     6.0100550515    -2.0191077784
 F     -6.7265593689     5.5403210766    -1.8438864075
 H     -7.0850729284     4.4968245138    -3.0617305696
 F     -7.0855645908     3.8829108579    -3.7429051297
 H     -4.8464330559     1.5566954405    -2.4226910118
 F     -3.9495020509     1.6989277680    -2.2955150023
          12
Energy: -43.6109565389706 Kcal/mole
 H     -3.5910385490     2.5265056697    -2.4666588174
 F     -2.8432204988     2.3063645716    -1.9837560729
 H     -4.8390028229     5.5165753576    -0.2279344321
 F     -5.1186490499     5.5535747774    -1.1004698358
 H     -3.7764172327     4.3976989431     1.0288159968
 F     -4.2825367747     5.1352687202     1.2306149886
 H     -6.1168824626     5.6114704278    -2.6802776173
 F     -6.3875302400     5.0973847040    -3.3897525282
 H     -5.6231295914     3.6584611829    -3.3271549079
 F     -5.1843241267     2.8539470223    -3.2940531012
 H     -2.8095051587     2.7348302255    -0.4392251817
 F     -2.8836680320     3.1042644157     0.3967815452
          12
Energy: -44.38630872629264 Kcal/mole
 H     -4.5550092976     1.7042327848    -1.6126559133
 F     -4.8805678536     1.7726925794    -0.7581303823
 H     -6.2088738810     6.2501444913    -2.0103913018
 F     -6.2884071750     6.2139012812    -2.9232165232
 H     -6.5394791478     4.7153258253    -0.3163167260
 F     -6.1332189219     5.5278761183    -0.4412312977
 H     -6.1627478304     4.7451737200    -3.5899574977
 F     -6.0219063822     3.8900399222    -3.8896221008
 H     -5.1010754958     2.6106770359    -3.5487967069
 F     -4.5266757297     1.9365006326    -3.3112254840
 H     -6.3347118974     2.6286495774    -0.4427568890
 F     -7.0689231178     3.1651095215    -0.3242933407
          12
Energy: -43.98173049728561 Kcal/mole
 H     -4.1414659566     4.1552157179    -1.7635369193
 F     -4.7390782519     4.5878519717    -1.2189504556
 H     -6.0996146370     5.9446258481    -4.9656323450
 F     -5.5744854117     5.4138431333    -5.4979837387
 H     -7.0742597330     6.2250532958    -3.0351892946
 F     -6.9578317789     6.6350775033    -3.8471090448
 H     -4.0079909099     5.0302516970    -5.2945612403
 F     -3.2245836619     4.6144429562    -5.0616123729
 H     -3.0856228974     3.7659967393    -3.7509457666
 F     -3.2513259444     3.3395038731    -2.9562537915
 H     -6.3345778262     5.0305083862    -1.4036863724
 F     -7.1700396718     5.1853904854    -1.7485110232
          12
Energy: -43.908340516992425 Kcal/mole
 H     -5.4710748964     6.3086047460    -3.6307608462
 F     -4.6866792771     6.4075126434    -3.1661860511
 H     -2.9774625343     6.1804385788    -6.9295595225
 F     -3.8393204542     6.1527071435    -7.2415224904
 H     -1.5836090040     6.3696390448    -5.5200374036
 F     -1.5114206512     6.3361085222    -6.4335764261
 H     -5.6128688950     6.0783488033    -7.2285654421
 F     -6.4976764616     6.2018291921    -7.0217873879
 H     -6.9732771694     6.1885186316    -5.4001355172
 F     -6.9113196780     6.2287309130    -4.4861151445
 H     -3.1830761547     6.4427349559    -3.7090296220
 F     -2.3152666805     6.4073028534    -4.0032069199
          12
Energy: -44.25940676011339 Kcal/mole
 H     -5.3744432356     5.8953566844    -2.6653693656
 F     -5.0519374783     6.0944936660    -1.8303702644
 H     -1.6017495981     6.2732702362    -4.8622756732
 F     -1.8969146204     5.7446963366    -5.5510254408
 H     -1.8044583732     6.6347982806    -2.7593257371
 F     -1.4520455421     7.0682094563    -3.4865457514
 H     -3.5379804663     5.9815635445    -6.1637523413
 F     -4.4065343054     6.2438183017    -6.2968901303
 H     -5.4165359563     5.7501900693    -4.9251734222
 F     -5.8284010108     5.4103398086    -4.1796816535
 H     -3.5533535898     5.7091910333    -1.6063222290
 F     -2.6481981092     5.5928671996    -1.6960513856
          12
Energy: -44.867696200462646 Kcal/mole
 H     -6.7527530723     5.3619060696    -0.9884393217
 F     -6.7045664565     5.4525743848    -0.0772059231
 H     -2.1705277091     4.7677234396    -2.5578530967
 F     -2.2159366766     4.2161259627    -3.2889941564
 H     -2.9301675965     5.5653163167    -0.5267941929
 F     -2.3066611316     5.6911398346    -1.1873221110
 H     -3.8001687227     3.8518392256    -3.7581217298
 F     -4.6992657228     3.6926106601    -3.8427376168
 H     -5.8006272804     4.5345202614    -2.9948093023
 F     -6.3938742485     5.1060960874    -2.5920089671
 H     -5.1049092623     5.3794635276     0.5502172443
 F     -4.1883099218     5.3604642971     0.5308864871
          12
Energy: -44.934520084723374 Kcal/mole
 H     -6.6234406144     5.4219000558    -1.0556763212
 F     -6.0017034142     5.8392796222    -0.5264068704
 H     -3.3348745818     5.3474897431    -4.3599535196
 F     -3.8056831256     4.9606613395    -5.0452214243
 H     -2.9163095923     6.5057282193    -2.4296925807
 F     -2.4765821945     6.0751508929    -3.1094954799
 H     -5.2574209653     4.2775615183    -4.6253178653
 F     -6.0184078559     3.9457707975    -4.2358273392
 H     -6.9024708154     4.4605921269    -2.9210536249
 F     -7.4951249565     4.7308277520    -2.2755903990
 H     -4.6101278339     6.6417280053    -0.8866415117
 F     -3.9053077375     7.0981306253    -1.2551714023
          12
Energy: -44.57884846992694 Kcal/mole
 H     -4.4857866822     4.2481533281    -0.2747956205
 F     -4.5487939219     5.0891084963     0.0853619740
 H     -2.1700356097     4.2432049597    -4.2570713050
 F     -2.4415524355     3.4841981709    -4.6941940656
 H     -2.6782079973     5.9922741879    -2.5446628887
 F     -2.0900629156     5.4882818081    -3.0355458116
 H     -3.9687722625     3.1590948128    -4.2041264103
 F     -4.7761310020     3.0856740536    -3.7755587285
 H     -4.6850932860     2.6841705173    -2.0850475200
 F     -4.5786595453     2.7623539080    -1.1776070446
 H     -4.1610842754     6.2255572856    -1.0748537886
 F     -3.9210372042     6.7685597462    -1.7737205366
          12
Energy: -44.24709668401523 Kcal/mole
 H     -5.1901022683     2.2024421306     0.5404729497
 F     -5.1777332191     2.7182117898     1.2985743053
 H     -4.0514475685     5.5791661687    -1.1722826639
 F     -4.1048688192     5.1172460589    -1.9626401667
 H     -3.7611636991     5.6658210273     0.9528354395
 F     -4.1143784925     6.1872585749     0.2863287301
 H     -4.7995536631     3.6798938933    -2.7155202907
 F     -5.2533715057     2.9145880476    -2.9374331750
 H     -5.1011180748     1.7423691367    -1.6591734561
 F     -4.9986326984     1.2675420643    -0.8814042107
 H     -3.8865365630     3.6692713142     1.5977558531
 F     -3.3035933805     4.3403993236     1.8228190466
          12
Energy: -44.26982176539923 Kcal/mole
 H     -2.9233499781     1.6908934675     0.2501453133
 F     -2.0163975349     1.5762957267     0.1780785145
 H     -3.6059290841     3.3835107039    -3.5155380420
 F     -4.3745361972     3.6922937197    -3.1221105965
 H     -1.4511353349     2.3132468267    -3.5258667990
 F     -1.9820862337     2.8397110348    -4.0567298516
 H     -5.6569582190     2.9179352267    -2.2197588013
 F     -6.2417043559     2.4945846423    -1.6543074436
 H     -5.2533848678     1.9438642882    -0.3219719731
 F     -4.5885792999     1.7337535913     0.2736588287
 H     -1.2130034433     1.4377908485    -1.2462305324
 F     -0.8632292506     1.5048834889    -2.0912427167
          12
Energy: -44.42434294634933 Kcal/mole
 H     -2.8502323273     0.6651429397    -2.1152066669
 F     -2.7901782877     0.2849496052    -2.9475140264
 H     -3.9722484180     4.9897485729    -3.3084611855
 F     -4.4712336402     5.1558013386    -2.5572426906
 H     -2.4926041283     3.6573961699    -4.4677650634
 F     -3.0149304083     4.4016068406    -4.5869906260
 H     -4.9699695485     3.9545975393    -1.2649850100
 F     -4.9802796200     3.2912339680    -0.6319514606
 H     -3.6810991201     2.1791782047    -0.5501947767
 F     -2.8958362583     1.7384890986    -0.7235278370
 H     -1.9920061619     1.4856712790    -3.9101417526
 F     -1.5965980964     2.2345859675    -4.2618067227
          12
Energy: -44.30590780779852 Kcal/mole
 H     -2.6422045896     1.0283067730     0.5860758095
 F     -1.7594680001     0.9503692034     0.3502986929
 H     -1.1123149932     4.7987534410     0.7313953879
 F     -1.4180230334     5.1162593551     1.5355232314
 H     -0.2629574346     3.3376595719    -0.6389944722
 F     -0.6951644658     4.1462054815    -0.6574225581
 H     -2.6269356431     4.2466447499     2.1124744868
 F     -3.3919558636     3.7869091565     2.3228937024
 H     -4.0614082064     2.3196040114     1.5946441008
 F     -4.1382165935     1.5344654811     1.1271540368
 H     -0.1755574207     1.4039873328    -0.1321197147
 F      0.5175920995     1.9334184127    -0.4152018127
          12
Energy: -44.38103581784898 Kcal/mole
 H     -3.3889630842     0.7578278517    -1.0299776181
 F     -2.9362910798     0.5234523111    -1.7922408025
 H     -1.3304168618     5.0552112966    -1.6303896679
 F     -1.5063656211     5.1363385263    -0.7340920574
 H     -1.4998118458     3.7499244629    -3.3700849635
 F     -1.3440036603     4.6498215966    -3.2876352320
 H     -2.9763604481     4.8426400690     0.0564994003
 F     -3.7254393960     4.5059504329     0.4644329962
 H     -4.0498215568     2.8316793242     0.2735530227
 F     -4.1432082315     1.9511165276     0.0352735855
 H     -1.9879664526     1.4475579588    -2.8391702756
 F     -1.6154550314     2.0648950212    -3.4057558318
          12
Energy: -44.643779410644726 Kcal/mole
 H     -4.3796456137     2.4957174263    -1.3830248935
 F     -4.5728522549     2.2014890186    -2.2297774180
 H     -1.2191395179     5.9466644814    -2.3870636304
 F     -1.2620812252     6.1986792092    -1.5064197825
 H     -1.9998470682     4.3603286461    -3.8915628801
 F     -1.5451721680     5.1525092631    -3.8102634027
 H     -1.6983706641     5.1356840117    -0.3556937118
 F     -1.8960342169     4.5754501992     0.3428449022
 H     -3.2652533310     3.7262630029     0.2762637220
 F     -3.9132843158     3.0994954346     0.1086115281
 H     -3.4999073497     2.7000457032    -3.4254401644
 F     -2.8626367645     2.9700835762    -4.0269838023
          12
Energy: -44.05045084712799 Kcal/mole
 H     -3.1933410471     2.7876621670     0.7735192718
 F     -2.6407497906     2.0604996850     0.8557787889
 H     -0.6460425113     4.9332859386    -1.9779304918
 F     -1.1824204487     5.6710095766    -1.8833179013
 H     -0.4899902150     2.5714274802    -1.9211019494
 F      0.0254101314     3.2908132862    -2.1613841690
 H     -2.7827258655     5.9811989661    -1.3372578341
 F     -3.6695698928     5.9661013267    -1.1045160618
 H     -4.1549428815     4.9318447947     0.1552977598
 F     -4.2744426647     4.1557010548     0.6288056231
 H     -1.9735862090     1.4637891048    -0.6210304138
 F     -1.4605217584     1.4233801658    -1.3799908787
          12
Energy: -44.33570646420935 Kcal/mole
 H     -4.0642210616     2.8460309972     0.0438966739
 F     -3.8779819329     1.9814904766    -0.1985361523
 H     -0.9691928763     5.4967662157    -1.5200361451
 F     -1.4902586604     6.2380649690    -1.6609460704
 H     -0.6255652444     3.1234311242    -0.9759246975
 F     -0.2969224489     3.9633758063    -1.1413811690
 H     -2.8731075961     6.7390185758    -0.9144412129
 F     -3.6328928839     6.9015883314    -0.4274233579
 H     -4.2090449564     5.4813076343     0.1347977506
 F     -4.3392853399     4.5865402291     0.2874992015
 H     -2.2613272058     1.6977333893    -0.7079480751
 F     -1.3447034742     1.7228833972    -0.7003710236
          12
Energy: -44.96145432617752 Kcal/mole
 H     -5.2636314643     2.5447628814     1.0053663136
 F     -4.4842556383     2.1872125637     1.3303587632
 H     -4.2774350633     4.6884596849    -3.1076468270
 F     -4.8880209374     5.3680654568    -3.0288440029
 H     -2.9806426358     3.1814741592    -1.9347416440
 F     -3.2513855864     3.3643044946    -2.7915732045
 H     -5.5105806238     5.6354454782    -1.5044844270
 F     -5.7450030059     5.5691226248    -0.6204389384
 H     -6.4178754062     4.1954350482    -0.1157166721
 F     -6.5377748640     3.3093445161     0.0876467687
 H     -3.2172918234     2.6231650429     0.3919473775
 F     -2.6694364669     2.9018818551    -0.2885380721
          12
Energy: -44.74168664547656 Kcal/mole
 H     -5.1838683945     2.2693234375     1.9246214628
 F     -4.3081791501     2.1362212120     2.1619843597
 H     -3.4580109051     4.4976293467    -2.0055157634
 F     -3.8455157317     5.2996256070    -1.7874996914
 H     -2.7489043457     2.6120564560    -1.3707918287
 F     -2.9004696860     2.9720192304    -2.2004566699
 H     -5.2898128478     5.1935696804    -0.7571693984
 F     -5.9369695514     4.9480863264    -0.1556586970
 H     -6.4014205675     3.6336374913     0.7958963686
 F     -6.6083895754     2.8212159562     1.1674122890
 H     -3.1584834016     2.0302665419     0.9103877271
 F     -2.6224352017     1.9655002676     0.1692084930
          12
Energy: -45.233721183182666 Kcal/mole
 H     -5.5153824903     1.6563073209     0.4730921499
 F     -5.1583966143     0.8387970308     0.2606609615
 H     -4.2185758706     3.4914171203    -3.3596171694
 F     -4.9024441669     4.1009787957    -3.4002092517
 H     -2.9403016573     1.6700189248    -2.3547550531
 F     -3.0323482983     2.3056433196    -3.0092762863
 H     -5.8912640474     4.3800597365    -2.1547248407
 F     -6.2956739729     4.5597602414    -1.3515752029
 H     -6.1150510918     3.6711102655     0.0666378342
 F     -6.0213335958     3.1608783320     0.8227921868
 H     -3.7327536198     0.5278118377    -0.5925521072
 F     -2.9755563918     0.5443280100    -1.1095323525
          12
Energy: -45.202802050620676 Kcal/mole
 H     -5.6051345345     1.4053074627    -0.4806161598
 F     -4.7826577539     1.2592397900    -0.1023501418
 H     -4.5272994057     3.6584097835    -4.1875479379
 F     -5.2580615013     3.8405662680    -4.7107063984
 H     -3.0637902797     2.4422487864    -2.7826267141
 F     -3.2375265606     3.2488369732    -3.1827769379
 H     -6.6651843119     3.2858141457    -4.0942479860
 F     -7.3073648070     2.8586045521    -3.5982790608
 H     -7.1650058707     2.1349916357    -2.1417683715
 F     -6.9995818590     1.6560705939    -1.3774657272
 H     -3.5463572000     0.9313917122    -1.2843684001
 F     -3.0637335885     0.9227386855    -2.0640404945
          12
Energy: -44.92833067007197 Kcal/mole
 H     -5.5608173556     2.9132784371     0.0752516670
 F     -4.6511939643     2.9666528292     0.1783315400
 H     -5.1439546744     2.6791736433    -4.7903339986
 F     -6.0391908524     2.8777557016    -4.7928542442
 H     -3.3493289253     2.5269436209    -3.5825122703
 F     -3.5964880064     2.2264553060    -4.4128785517
 H     -6.6420544694     3.7027022504    -3.4864754823
 F     -6.7936825151     4.0417157572    -2.6480437450
 H     -7.2287366246     3.3207054303    -1.1441589952
 F     -7.2057630787     2.8903709115    -0.3347311614
 H     -3.5412561831     3.1038195465    -1.1943226111
 F     -3.1571784927     3.2042110629    -2.0209391311
          12
Energy: -45.22110621814497 Kcal/mole
 H     -4.0268491533     4.5569454238    -0.4795713428
 F     -3.1109029901     4.5968507492    -0.4979884828
 H     -4.3114612244     4.4790595376    -4.8852085810
 F     -5.2193192379     4.5936916562    -4.9447258460
 H     -2.3318622668     3.8853409176    -3.9470559127
 F     -2.6440976318     4.2213204978    -4.7411061620
 H     -5.7849427772     5.4832349525    -3.6570930925
 F     -6.0116194106     5.9995719289    -2.9339728876
 H     -5.9266783421     5.2267488615    -1.4690186101
 F     -5.6734240080     4.7589778141    -0.7220637993
 H     -2.3476348806     3.7558779119    -1.6599143136
 F     -2.1430559039     3.2837813769    -2.4189672129
          12
Energy: -44.38264111540482 Kcal/mole
 H     -5.2534540485     4.0687936533    -0.3861987620
 F     -4.8940463762     3.2955035267    -0.0489488471
 H     -4.2994918559     3.8477865129    -4.7791032807
 F     -4.2797182049     4.7086729468    -5.0943374010
 H     -3.9536265877     2.3923413615    -3.0093976667
 F     -4.5378018672     2.5791869122    -3.6910992018
 H     -5.3435473047     5.9635573430    -4.3366993291
 F     -5.9020682976     6.2826903627    -3.6831724235
 H     -5.7822999036     5.7821146967    -2.0251907943
 F     -5.7351074759     5.4378787720    -1.1765663173
 H     -3.6412991401     2.5661651883    -0.9566656531
 F     -3.0977596154     2.3024360695    -1.6465212445
          12
Energy: -44.86744762471743 Kcal/mole
 H     -6.5505433998     3.3185697837     0.1045859438
 F     -6.1102296245     2.5470952010     0.3322693810
 H     -3.7955450134     4.1971367027    -3.8062836799
 F     -4.3778045230     4.8080146599    -4.1650189375
 H     -3.0158863584     2.8911332769    -2.0609266088
 F     -2.7610886621     3.2472317755    -2.8666318857
 H     -5.9516746132     4.6900816776    -3.5828349752
 F     -6.7597795880     4.6860537950    -3.1494308614
 H     -7.1135694579     4.8268388428    -1.4200474277
 F     -7.0386258689     4.7283475740    -0.5114375397
 H     -4.5979290267     2.4156709957    -0.3565677956
 F     -3.7518881669     2.3340794241    -0.7007286288
          12
Energy: -45.60723320811036 Kcal/mole
 H     -5.2253632064     3.4628587662     0.1906137643
 F     -4.6376230163     2.8038287387     0.4378583635
 H     -3.4285645580     5.0506987265    -3.6610999055
 F     -4.1091496419     5.6084982564    -3.9190778660
 H     -2.2358723868     3.5801983992    -2.3629763414
 F     -2.2294033245     3.9467313403    -3.2035123337
 H     -5.5506538638     5.0556007255    -3.4363763944
 F     -6.2999269495     4.6731959481    -3.0713484102
 H     -6.2796084010     4.7350158462    -1.4167149552
 F     -6.1242982468     4.7521470561    -0.5131252930
 H     -3.1809181957     2.8984132433    -0.3163786073
 F     -2.4215722363     3.0601748175    -0.8043498227
          12
Energy: -45.285284322969744 Kcal/mole
 H     -4.7544512242     2.9880614629    -0.3882470936
 F     -3.9791695637     2.6230037602    -0.0618114635
 H     -2.6541351600     5.9469337436    -2.6860604296
 F     -3.1900574354     5.9796244661    -3.4294362641
 H     -2.0038036154     5.4459039615    -0.3546748406
 F     -1.9723293851     5.9308965540    -1.1322869277
 H     -4.7692350990     5.7331553705    -3.0041281688
 F     -5.6092077108     5.5216892728    -2.7031014244
 H     -6.0724297077     4.3158932793    -1.5957398549
 F     -6.1199054588     3.6941619909    -0.9233669984
 H     -2.7686627973     3.5788703118     0.5917820830
 F     -2.1572653004     4.2239101406     0.8176265430
          12
Energy: -45.209291164207826 Kcal/mole
 H     -5.5313012577     4.2837285684    -0.0151770282
 F     -4.9657689347     3.7336738880     0.4522649897
 H     -2.8820182548     7.1831999403    -2.0786362255
 F     -3.4005770305     7.3825208040    -2.8081956744
 H     -2.3526597922     6.0320100271    -0.0612226838
 F     -2.1329406146     6.6670269981    -0.6852146145
 H     -4.5966307943     6.3586739907    -3.2591216666
 F     -5.2684960955     5.7460496875    -3.3781908904
 H     -5.9031417878     5.5718467305    -1.8864239094
 F     -6.1056812708     5.5104891463    -0.9941784249
 H     -3.5383128084     4.2991716277     0.7469809087
 F     -2.7506267434     4.7489964747     0.8815070031
          12
Energy: -45.022311241496595 Kcal/mole
 H     -5.8310258773     3.5530492560    -0.3223736445
 F     -5.4623438723     3.6382454027     0.5129132498
 H     -2.2791124934     6.0764476478    -2.3428693040
 F     -2.7037526871     6.1292148154    -3.1539089651
 H     -2.0369090888     5.2005539183    -0.3181692167
 F     -1.5951396988     5.8109533389    -0.8407984861
 H     -3.6269481945     4.7473530225    -3.5655322398
 F     -4.0485119623     3.9352023713    -3.5056631376
 H     -5.3316979975     3.6103127027    -2.4769924016
 F     -6.1030368330     3.5638404431    -1.9832660299
 H     -3.8846718795     3.9811331369     0.6360419595
 F     -2.9842666851     4.1534626577     0.6145472585
          12
Energy: -45.132816340092916 Kcal/mole
 H     -4.6236097814     2.7459224541    -0.6786825527
 F     -4.3117794504     2.9127073402     0.1673869754
 H     -2.2303170021     5.9853575984    -2.8564941002
 F     -2.1222333370     5.4522316175    -3.5947241523
 H     -2.6278995563     6.1619682719    -0.7056064076
 F     -2.5179998201     6.7231906060    -1.4224331228
 H     -3.1347256378     4.2852494255    -3.9504784778
 F     -3.7415853008     3.6381016517    -4.1824485368
 H     -4.5042699293     2.7313621930    -3.0062912012
 F     -4.9274318276     2.3839453034    -2.2706795424
 H     -3.3891670663     4.2805932882     0.3533992963
 F     -2.8247318828     4.9964754349     0.4524683419
          12
Energy: -45.51919709538427 Kcal/mole
 H     -4.9820230195     2.8292223247    -0.0318426505
 F     -4.3701703526     2.8019693808     0.6506400168
 H     -2.8676041762     5.6931097080    -2.9921158102
 F     -2.7972276488     5.1758563221    -3.7460289877
 H     -3.0871698421     5.9133055417    -0.7492378476
 F     -3.1712609206     6.3980798442    -1.5230670058
 H     -3.7570886333     3.8067869794    -3.6636374493
 F     -4.3406094025     3.1207804520    -3.4910467307
 H     -5.3353471410     2.9753862226    -2.1800500376
 F     -5.8409998380     2.8617809258    -1.4235461139
 H     -3.4547067907     4.1667022929     0.7266727023
 F     -3.0203175716     4.9626337984     0.5899684787
          12
Energy: -45.53486870860115 Kcal/mole
 H     -5.2890624612     2.9546532203     0.4175895865
 F     -4.7440003783     3.2168902551     1.1068123831
 H     -2.6520480487     5.0605268765    -2.4578383298
 F     -3.1626930767     4.7646007962    -3.1596633866
 H     -2.3023734689     5.3231028497    -0.2264212446
 F     -1.8919743300     5.3434478102    -1.0462063563
 H     -3.7333089991     3.1847061088    -3.0742584501
 F     -4.0583847569     2.3688018958    -2.8106013493
 H     -5.3668762902     2.5049290852    -1.7746358831
 F     -5.9723662637     2.6318867211    -1.0977661388
 H     -3.7732605810     4.5716592900     1.2057574292
 F     -3.1330752813     5.2280939103     1.1937004264
          12
Energy: -45.63828924541136 Kcal/mole
 H     -4.5230321329     2.5661661969     0.5032219948
 F     -4.4586372583     3.1179403457     1.2328024146
 H     -3.0949160310     5.6904664712    -2.6141257434
 F     -3.3099053074     5.2270334022    -3.3756363485
 H     -2.7256871401     5.8714066492    -0.2927487210
 F     -2.7488114569     6.2784398412    -1.1141367211
 H     -3.2661193960     3.5421622916    -3.2521781387
 F     -3.2610335547     2.6672461329    -2.9776151232
 H     -4.0970210272     1.9992309653    -1.6955109177
 F     -4.5965443973     1.7694187800    -0.9616500574
 H     -3.3232656281     4.2685370003     1.1988906434
 F     -2.6929416927     4.9128355817     1.0301895036
          12
Energy: -45.769183003232286 Kcal/mole
 H     -4.2138440815     2.6455799027     0.3040843915
 F     -3.6447375452     2.8592605024     0.9906318054
 H     -3.4916611033     6.1331783286    -2.4283279591
 F     -3.8885205722     5.8136395595    -3.1907494547
 H     -2.4715744554     6.0433816279    -0.2930165114
 F     -2.7505208578     6.5421611840    -1.0101614473
 H     -4.1310531460     4.1958441785    -3.3393498140
 F     -4.2289144216     3.2868400602    -3.2684718651
 H     -4.8429728392     2.6307655396    -1.9157104662
 F     -5.1259171992     2.3843164630    -1.0789940615
 H     -2.6419693240     4.1794977905     1.0576385673
 F     -2.1652348648     4.9530224497     0.9340551663
          12
Energy: -45.78535213449081 Kcal/mole
 H     -4.0357357530     2.4616677976     0.3201386414
 F     -3.4244731337     2.6190411699     0.9853308181
 H     -3.2395060469     5.6915993036    -2.4900871985
 F     -3.1014166690     5.1754927007    -3.2353752624
 H     -3.1636936817     5.9862656880    -0.1700132707
 F     -3.4064002695     6.3923936137    -0.9555338753
 H     -3.4297300856     3.5349842826    -3.1955509229
 F     -3.6522999281     2.6511796459    -3.0943529514
 H     -4.5858049368     2.3813322592    -1.7741374928
 F     -5.0352651388     2.3930454272    -0.9749270521
 H     -2.9762644361     4.1954588719     1.1837843829
 F     -2.7888533780     5.0927047518     1.1570275851
          12
Energy: -45.81717712456495 Kcal/mole
 H     -4.0309366620     2.3916606927     0.5929262228
 F     -3.5012548456     2.6948185495     1.2773394659
 H     -3.0470855959     5.6837803203    -2.2784404890
 F     -2.9392089479     5.1533229411    -3.0186206007
 H     -2.9173273793     6.0490594226    -0.0846901645
 F     -3.2311708431     6.4878828934    -0.8261921818
 H     -3.4481797405     3.5617654885    -3.1216596186
 F     -3.7325622632     2.6979870428    -3.0037512755
 H     -4.4932148157     2.1542474561    -1.6041330615
 F     -4.8422609839     1.9683295893    -0.7767937603
 H     -2.7925808567     4.1865173151     1.2537360765
 F     -2.4500824566     5.0343616254     1.1848603077
          12
Energy: -45.75152603238783 Kcal/mole
 H     -4.2104159947     2.2225007552     0.7832202808
 F     -3.6432752474     2.4652081435     1.4616990914
 H     -2.7270180213     5.4667776426    -2.2088064430
 F     -2.5969455750     4.9006672726    -2.9183761772
 H     -2.7558256596     5.7442038237     0.0034023527
 F     -2.9869452008     6.1879189063    -0.7650959773
 H     -3.4289546820     3.4403939061    -2.8637295356
 F     -3.9228068854     2.6832677412    -2.7095900802
 H     -4.7962341416     2.2170577160    -1.3863497771
 F     -5.1960632484     2.0545234336    -0.5772711083
 H     -2.8243955875     3.9069062238     1.4300289533
 F     -2.4402388178     4.7287847459     1.2965064040
          12
Energy: -45.91228635481838 Kcal/mole
 H     -4.5460511728     2.5422648317     0.9444926267
 F     -4.0913423933     2.8066161558     1.6956565923
 H     -3.0910424106     5.4660753874    -2.1652518710
 F     -2.9398154724     4.9244527454    -2.8895890348
 H     -3.1623741848     5.8570462721     0.0912372875
 F     -3.4382801510     6.2132396583    -0.7074436059
 H     -3.2812041790     3.2833874133    -2.7976592950
 F     -3.5350242603     2.4263857851    -2.5926896007
 H     -4.5959861545     2.1971434111    -1.3217863281
 F     -5.1261497291     2.1847534567    -0.5736806717
 H     -3.1543897996     4.1804757240     1.6087763776
 F     -2.7160565164     4.9614075375     1.4115495142
          12
Energy: -45.860397403980784 Kcal/mole
 H     -4.4009845523     2.4088358806     0.9746499555
 F     -3.9710900309     2.7105957921     1.7263285147
 H     -2.9352037693     5.4845606600    -2.0779367240
 F     -2.7051170225     4.9693013176    -2.8007485246
 H     -3.1915097065     5.8178321246     0.1515767717
 F     -3.4407488188     6.1702346572    -0.6574852283
 H     -3.2043383370     3.3824374308    -2.6847961216
 F     -3.4731961082     2.5179357445    -2.5390520537
 H     -4.4636111787     2.1305448557    -1.2759326532
 F     -4.9819264359     2.0526129541    -0.5234933448
 H     -3.1514472811     4.1572768120     1.6292557023
 F     -2.7400383292     4.9648879162     1.4899862560
          12
Energy: -45.96466442187517 Kcal/mole
 H     -4.3521499827     2.4365905742     0.9015987103
 F     -3.9243143931     2.7029852961     1.6676793591
 H     -2.9640905710     5.4621574577    -2.0923599385
 F     -2.7464750647     4.9319107477    -2.8081608311
 H     -3.1559044081     5.8548042543     0.1193214449
 F     -3.4195551834     6.2283711557    -0.6755527834
 H     -3.1449768134     3.3334374686    -2.7721016285
 F     -3.4269025635     2.4731030418    -2.6263911433
 H     -4.4562931550     2.1887269947    -1.3606927919
 F     -4.9748703778     2.1504984625    -0.6053748169
 H     -3.1327160429     4.1587837900     1.5981352712
 F     -2.7140238556     4.9572794567     1.4308315875
          12
Energy: -45.992231677778506 Kcal/mole
 H     -4.3461361479     2.4335737075     0.8993238898
 F     -3.9246334131     2.7031453339     1.6678000330
 H     -2.9926851487     5.4702214790    -2.1001884341
 F     -2.7591719563     4.9454403469    -2.8150068393
 H     -3.1761139937     5.8343492267     0.1182858149
 F     -3.4542476027     6.1905443424    -0.6796212819
 H     -3.1590846763     3.3362111399    -2.7819253986
 F     -3.4261541740     2.4729559050    -2.6258700150
 H     -4.4592829641     2.1942287384    -1.3624375887
 F     -4.9747117753     2.1502066077    -0.6052822595
 H     -3.1164819310     4.1538588860     1.6203672045
 F     -2.7080933384     4.9571376089     1.4505112336
