          12
Energy: 0.4813994253097462 Kcal/mole
 H      5.1466525091     3.3157451898     1.8788366204
 F      5.5863379295     4.1204598791     1.8788366204
 H     -2.8675312602     0.5411995695     0.3688114026
 F     -3.7680119270     0.7144726738     0.3688114026
 H      4.7319666167    -1.8919287566    -0.5966771118
 F      4.2394162644    -2.6654164103    -0.5966771118
 H     -2.8205740742    -4.2019294512    -2.4852543891
 F     -2.1228432358    -4.2019294512    -3.0802843691
 H     -1.0092731170     2.6605438275    -3.8816411438
 F     -0.0922731170     2.6605438275    -3.8816411438
 H     -1.1848685728     2.0848128345     3.9739036891
 F     -0.7082252668     2.0848128345     4.7572938593
