          12
Energy: -46.04786928096689 Kcal/mole
 H      3.1344570420     2.6580606186    -3.2741766277
 F      2.7219676797     3.3592538383    -2.8510104729
 H      4.5894239374     1.1904994623     0.6010637752
 F      5.1290557140     0.5724806516     0.1915038950
 H      3.5749488871     3.1369356657     0.5650656503
 F      3.5742166982     2.3985963024     1.1088886440
 H      4.7250451980    -0.1663039886    -1.2324220878
 F      4.4480418673    -0.4603104678    -2.0556585938
 H      4.1398735217     0.6377808643    -3.2653795712
 F      3.9506712758     1.3326198511    -3.8330857387
 H      3.2975307626     4.0359928876    -1.4514152638
 F      3.6437643752     4.2773377629    -0.6373121151
