          12
Energy: -46.10396772886324 Kcal/mole
 H     -3.2467474635     2.5089833407    -4.6282502606
 F     -2.4697426067     2.9952353809    -4.6549224536
 H     -2.7242111624     1.2643270336    -0.3711222591
 F     -3.5135766257     0.7982228392    -0.3479264565
 H     -1.4213004649     2.8553772726    -1.2478770725
 F     -1.3565211164     2.1503198168    -0.6651364612
 H     -4.0143416440     0.0532296564    -1.7399342424
 F     -4.2331162401    -0.2464351949    -2.5785209422
 H     -4.5276721609     0.8843459695    -3.7494125299
 F     -4.5921777881     1.5885279183    -4.3332411067
 H     -1.9545178827     3.7074397391    -3.2544294011
 F     -1.7256654372     3.9910479211    -2.4129533424
