          12
Energy: -46.09009639923721 Kcal/mole
 H     -4.9510208064     2.6455189877    -5.4353512016
 F     -5.2889275256     3.4290555477    -5.0995260859
 H     -3.9769064884     0.9593553606    -1.4176612364
 F     -3.7069694108     0.1595643875    -1.7759312094
 H     -5.1180229925     2.8938748913    -1.5463351617
 F     -4.4912810881     2.4840851617    -1.0170375491
 H     -2.9391754613     0.1965634641    -3.2429889145
 F     -2.6057631981     0.3243701161    -4.0876135190
 H     -3.6501128406     0.8283146289    -5.2659675134
 F     -4.2937456175     1.1790883042    -5.8169517938
 H     -5.9044342486     3.5313427194    -3.5615635061
 F     -6.1605077594     3.4924740241    -2.6819018771
