          12
Energy: -45.992231677778506 Kcal/mole
 H     -4.3461361479     2.4335737075     0.8993238898
 F     -3.9246334131     2.7031453339     1.6678000330
 H     -2.9926851487     5.4702214790    -2.1001884341
 F     -2.7591719563     4.9454403469    -2.8150068393
 H     -3.1761139937     5.8343492267     0.1182858149
 F     -3.4542476027     6.1905443424    -0.6796212819
 H     -3.1590846763     3.3362111399    -2.7819253986
 F     -3.4261541740     2.4729559050    -2.6258700150
 H     -4.4592829641     2.1942287384    -1.3624375887
 F     -4.9747117753     2.1502066077    -0.6052822595
 H     -3.1164819310     4.1538588860     1.6203672045
 F     -2.7080933384     4.9571376089     1.4505112336
