          12
Energy: -46.10315250124688 Kcal/mole
 H     -3.2396985207     2.5055950800    -4.6208495847
 F     -2.4610699224     2.9892756932    -4.6469181555
 H     -2.7316715841     1.2784448196    -0.3819718481
 F     -3.5235242321     0.8167257699    -0.3560122085
 H     -1.4129426935     2.8656464948    -1.2576372387
 F     -1.3572806862     2.1552312823    -0.6804882399
 H     -4.0173700335     0.0590014384    -1.7412344356
 F     -4.2329555910    -0.2467413746    -2.5784519699
 H     -4.5237935348     0.8840040962    -3.7474910974
 F     -4.5874272803     1.5893133926    -4.3300531479
 H     -1.9342198136     3.7211863731    -3.2546596305
 F     -1.6984887449     4.0112200659    -2.4172825827
