          12
Energy: -46.09502848641026 Kcal/mole
 H     -3.3439984982     2.5218301251    -4.4343910369
 F     -2.5157834927     2.9122877334    -4.4843085764
 H     -2.8064811599     1.2378213592    -0.1818818492
 F     -3.6367106896     0.8591484393    -0.0912466030
 H     -1.3765598750     2.6836756767    -1.1639056768
 F     -1.3769825353     1.9633069794    -0.5964924576
 H     -4.3190052451     0.2189254885    -1.4608570421
 F     -4.6239331348    -0.0357865988    -2.2873131720
 H     -4.7950796074     1.0894516385    -3.4943649993
 F     -4.7814045346     1.7732369179    -4.1052166050
 H     -1.8616909771     3.5967131956    -3.1206971036
 F     -1.5662009020     3.8653829849    -2.2952328949
