          12
Energy: -46.09738743594363 Kcal/mole
 H     -2.9674368910     2.3533616914    -4.3336505014
 F     -2.0988318042     2.6466845037    -4.3142615622
 H     -2.8118790880     0.8301396390    -0.2053812292
 F     -3.6762284732     0.5243669086    -0.2224744320
 H     -1.2044242126     2.1956735941    -0.9444319236
 F     -1.2939253223     1.4502971824    -0.4178461697
 H     -4.2673093392    -0.0428111110    -1.6560586778
 F     -4.5173497874    -0.2488050194    -2.5139253831
 H     -4.5784158011     1.0046268224    -3.5979245985
 F     -4.4936298246     1.7514004906    -4.1233096256
 H     -1.5008542861     3.2312147039    -2.8850051556
 F     -1.2492148816     3.4446151144    -2.0294194645
