          28
Energy: -112.63696283671692 Kcal/mole
 H      1.8399674474     1.8954254558    -1.3693254263
 F      1.4087401770     1.0882044174    -1.3116518929
 H      5.5343918444     0.9865506556     0.4845510361
 F      6.3836166256     0.8000769668     0.7759851358
 H     -0.2656313766     3.3066012246     0.7628134656
 F      0.5007013190     3.2021787332     1.2554788115
 H      2.2524406140    -0.2045419655     2.3494413325
 F      2.4490115711    -0.3481286973     1.4653419550
 H      1.2509377886     0.9111443952     3.8682941798
 F      1.8570166599     0.2231122925     3.8813029165
 H      2.7549892070     3.8050782463    -0.6911701003
 F      2.3509599994     3.4656210401    -1.4411155680
 H     -1.5305264473     2.6209448183    -0.8253289642
 F     -1.5996975841     3.2729677937    -0.1842592384
 H     -0.1913492075     1.1859938770    -1.7226864403
 F     -1.0757026075     1.3982970668    -1.8398846466
 H      3.2761241995     3.8192875058     1.4435994577
 F      3.4451989572     4.3458339373     0.7121272560
 H      3.7481025284     2.8191703153     3.3844766529
 F      3.0710389311     2.8148197204     2.7660472248
 H      5.7454981796     2.1685906969     4.0421464570
 F      5.0974310401     2.7565807976     4.3163099558
 H      6.7189517269     0.9468769458     2.3955007742
 F      6.7644342369     1.0867376790     3.3006302216
 H      0.2876932960     2.5653836088     2.7839986295
 F      0.1518239286     2.1146518714     3.5709353587
 H      3.3489253367     0.7265736500     0.5730774604
 F      3.9334104580     1.3388209130     0.2203460724
