          28
Energy: -111.92754808908738 Kcal/mole
 H      6.8162868024     0.0211497897     5.1155253926
 F      6.8775847591    -0.6060730480     5.7816508106
 H      2.7524483581    -2.5554732036     6.8933326415
 F      2.6747644127    -1.6449979409     6.9700724667
 H      4.5114590141    -6.1541853457     5.1759363398
 F      3.8751195312    -6.6197070582     4.7076943108
 H      0.9657083304    -4.7118033388     3.8920093846
 F      0.8913446499    -4.5424463694     4.7901615209
 H      2.0905300892    -5.4094089884     2.1800308338
 F      1.2281695530    -5.1324975506     2.3233603883
 H      6.4798583431     0.6016167147     2.9631931808
 F      6.6289618574     0.9883697321     3.7811658244
 H      5.5965080901    -4.2870063347     5.7523632185
 F      5.7200378312    -5.1952099730     5.7805687944
 H      5.9196221544    -1.9321718341     5.6810214224
 F      5.3473942022    -2.6352577103     5.5427665081
 H      5.8494113996    -1.1563081058     1.5890721759
 F      6.1783409874    -0.3003412399     1.5929517235
 H      4.4604953587    -2.8526704835     2.3042704525
 F      5.1956801872    -2.6721887086     1.7867585233
 H      3.1400414398    -2.1377249605     3.8004730646
 F      3.1849880174    -2.9380697752     3.3551451148
 H      2.9900402399    -0.9358208990     5.5115756972
 F      3.1502680584    -0.7306617998     4.6322999781
 H      3.8173862231    -6.2547529397     3.0991731431
 F      3.6694059167    -5.9244155761     2.2566364643
 H      2.1567769827    -4.3663933501     5.8484549470
 F      2.8438759483    -4.1380610064     6.4111701079
