          28
Energy: -111.94336538426408 Kcal/mole
 H      2.3906846693     2.1932385092    -2.2562966967
 F      2.1998174429     3.0402137803    -2.5514095429
 H      5.4910271936    -1.9489519768     0.7827022234
 F      6.3347965467    -1.6049074150     0.8855400485
 H     -0.0030879666     0.7846876355     0.3270273448
 F      0.5747579006     0.4988540991     0.9791640968
 H      2.4305347135    -3.3322876627     3.4267118631
 F      3.2845407843    -3.5063494950     3.1416415043
 H      0.4019055595    -2.2427052257     3.5226000994
 F      0.8644510052    -2.9694228308     3.8369601368
 H      2.9054161635     0.6113039221    -0.7264026481
 F      2.4914741007     0.7088719883    -1.5388196846
 H     -0.7782929619     2.2364007279    -1.1330247750
 F     -1.0058958022     1.4047560914    -0.8208499112
 H      0.7152525785     3.5316924745    -2.0381562747
 F     -0.1140883319     3.6418431479    -1.6627238794
 H      3.1793636303     0.1533699839     1.4318520884
 F      3.6626589457     0.5187463230     0.7435100448
 H      3.2677035013    -0.4574895355     3.5014302936
 F      2.6227475694    -0.5487471986     2.8559902229
 H      5.4053341434    -0.2531032320     4.0238199419
 F      4.5920833633    -0.3017457987     4.4447071826
 H      6.6797262867    -0.7030312206     2.2340458550
 F      6.7331224961    -0.2504379975     3.0297827582
 H     -0.0605231478    -0.4186406056     2.2162894916
 F     -0.4331793645    -0.9613623781     2.8546228072
 H      3.6847605291    -2.9402673812     1.6619065472
 F      3.9343205999    -2.5435302937     0.8737387640
