          28
Energy: -112.62413230013021 Kcal/mole
 H      1.8192649433     1.8976722626    -1.3593366298
 F      1.3761668960     1.0962510566    -1.3116169160
 H      5.5107893419     0.9954548916     0.4787778229
 F      6.3686135774     0.8226416811     0.7529350320
 H     -0.2824494835     3.2747529214     0.7843069999
 F      0.4797286438     3.1484967481     1.2783038429
 H      2.2345167253    -0.2391555050     2.3584799608
 F      2.4309329722    -0.3732539474     1.4728574307
 H      1.2250443764     0.8578671892     3.8909824231
 F      1.8342961077     0.1726221573     3.9028388176
 H      2.7365900063     3.7935460172    -0.6653168273
 F      2.3408073513     3.4630567993    -1.4236188561
 H     -1.5346700297     2.6709731463    -0.8448255770
 F     -1.6068102380     3.2914800611    -0.1735164388
 H     -0.2068008300     1.2498027126    -1.7700797052
 F     -1.0797075788     1.4939500142    -1.9090577716
 H      3.2442740530     3.7786404200     1.4808669020
 F      3.4107722658     4.3182474875     0.7583770696
 H      3.7322703530     2.7654297311     3.4071626815
 F      3.0520855271     2.7547732193     2.7922447672
 H      5.7767574104     2.1863129931     4.0317960450
 F      5.0971738114     2.7263816180     4.3273988401
 H      6.7708141774     1.0187581827     2.3529078451
 F      6.8522837908     1.1809816768     3.2517600243
 H      0.2585900700     2.5040002176     2.8001742477
 F      0.1220434401     2.0542412104     3.5875501765
 H      3.3272463974     0.7108278401     0.5895142525
 F      3.9056975885     1.3275524493     0.2346424786
