          28
Energy: -112.58370137736968 Kcal/mole
 H      1.9339547868     1.7506036875    -1.0592656437
 F      1.4150790090     1.0187201945    -0.8695198139
 H      5.7267748929     0.7277520734     0.5744854985
 F      6.6003435019     0.5854296293     0.8143004423
 H     -0.0478885311     3.6801403562     0.6107379210
 F      0.6566419642     3.5004563204     1.1695218045
 H      2.2398143141    -0.3076397566     2.5230720232
 F      2.6368604803    -0.5577005327     1.7352186420
 H      0.9827878258     1.0009227367     3.7771982464
 F      1.5190409089     0.2662030456     3.8934247769
 H      3.0391446287     3.5841894987    -0.6596854998
 F      2.6176190119     3.2071965794    -1.3815452460
 H     -1.2883796658     2.9707301572    -0.9593662782
 F     -1.2933245242     3.7311082082    -0.4468335788
 H     -0.1168609178     1.2255357040    -1.4460020371
 F     -0.9507047396     1.5234718089    -1.6843873517
 H      3.4628870361     3.6609072271     1.4625312805
 F      3.7377452695     4.1364777432     0.7282461616
 H      3.7789438502     2.6570685502     3.3819082746
 F      3.0910944787     2.7070876962     2.7775488392
 H      5.9476914557     2.2823467248     3.8968490884
 F      5.1555227464     2.5459564707     4.2761479650
 H      7.1105265855     1.3149162091     2.2130509316
 F      7.2421477465     1.7516375701     3.0085629195
 H      0.2668489133     2.7738723486     2.6229771380
 F      0.0197258010     2.2900364852     3.3617071460
 H      3.5294924881     0.4819376725     0.8045510458
 F      4.1098055874     1.0681708550     0.4039809989
