          28
Energy: -112.62407918570057 Kcal/mole
 H      1.8340496401     1.8805113971    -1.3096095184
 F      1.4036238719     1.0747142366    -1.2301513901
 H      5.5610004942     0.9682825975     0.4894587905
 F      6.4130809841     0.7856631380     0.7749372867
 H     -0.2671099068     3.3218236364     0.7740385404
 F      0.4935522926     3.2216098046     1.2762727550
 H      2.2871798063    -0.2322495934     2.3610369800
 F      2.5103876822    -0.3885304501     1.4854551517
 H      1.2369346741     0.8838398273     3.8536816771
 F      1.8499134609     0.2021074004     3.8733515794
 H      2.7473961839     3.7947762315    -0.6738570474
 F      2.3415264018     3.4470301722    -1.4189955568
 H     -1.5234869108     2.6114139079    -0.8148405016
 F     -1.5904496093     3.2760601265    -0.1866284346
 H     -0.1903675949     1.1582610787    -1.6697574203
 F     -1.0730709819     1.3683230400    -1.8024137542
 H      3.2622587226     3.8010865437     1.4531817853
 F      3.4384473884     4.3349313314     0.7287121194
 H      3.7361776104     2.7983689810     3.3687813602
 F      3.0542713553     2.7822686831     2.7558917783
 H      5.7957667662     2.2676659852     3.9955507551
 F      5.0938800570     2.7808699021     4.2868680861
 H      6.8278765279     1.0880273263     2.3550711594
 F      6.9178619163     1.3074791546     3.2408660143
 H      0.2684258507     2.5466579007     2.7869933348
 F      0.1262280508     2.0764277989     3.5613010495
 H      3.3822585641     0.7022793367     0.5868715985
 F      3.9579640813     1.3202549689     0.2297185846
