          28
Energy: -112.55054332167856 Kcal/mole
 H      2.3070076623     2.0339327686    -1.9188669543
 F      1.6072298902     1.5160293565    -2.2069227223
 H      4.2942621267    -0.6017912984     0.4403708436
 F      4.9001048704    -1.2141254443     0.7548393854
 H      0.4242027794     4.0784299273     0.0071757101
 F      0.8465461847     3.6117424731     0.6740474130
 H      0.4029421702    -0.0124374748     1.4185775824
 F      0.7439651357    -0.1497061315     0.5784885081
 H     -0.3210246204     1.3088716473     2.9516368909
 F     -0.1515278642     0.4090722369     2.9014286172
 H      3.5976640912     3.2928264225    -0.5491037735
 F      3.3576560853     3.2324119448    -1.4320733358
 H     -0.3617444249     4.2129351233    -2.0138561430
 F     -0.3645328517     4.7436255130    -1.2660266605
 H      0.4445920725     2.4310356280    -2.9186510109
 F     -0.1665828040     3.0642163104    -3.1764037872
 H      3.4042904839     2.9646228083     1.6272275981
 F      3.9863527977     3.3774041002     1.0512900426
 H      2.9783573029     1.6925557044     3.3573100797
 F      2.4753736445     2.1194715943     2.7204119227
 H      4.6852149528     0.3207877368     3.9721864488
 F      4.0335843200     0.8607847900     4.3252724169
 H      5.5240253580    -0.9049582263     2.2590885656
 F      5.7478658773    -0.6296656903     3.1046643704
 H     -0.0488781964     3.2474776117     2.0557965248
 F     -0.5694846961     2.9290029089     2.7402172552
 H      2.2869686656     0.3144799781     0.2086074611
 F      3.1652045107     0.5665678885     0.1308740330
