          28
Energy: -112.62951241170002 Kcal/mole
 H      1.8350067415     1.8876801450    -1.3488211393
 F      1.3941914406     1.0864054104    -1.2815183158
 H      5.5560597786     0.9844135047     0.4771874288
 F      6.4094172303     0.8068474150     0.7620388699
 H     -0.2553443963     3.3312897715     0.7466816511
 F      0.5094706274     3.2169730630     1.2395088719
 H      2.2848162259    -0.2295135067     2.3640368114
 F      2.5104006446    -0.3844662552     1.4888280845
 H      1.2331812226     0.8993472510     3.8507632190
 F      1.8387067275     0.2113087683     3.8795887154
 H      2.7759181110     3.7874824967    -0.6886463937
 F      2.3714908601     3.4486953919    -1.4386803238
 H     -1.5335084604     2.6409388796    -0.8262873617
 F     -1.5899044327     3.3079870037    -0.1995854433
 H     -0.2101344050     1.1761625116    -1.6967843544
 F     -1.0949859689     1.3863572932    -1.8140228450
 H      3.2835779589     3.7943924447     1.4403008334
 F      3.4627382062     4.3225315880     0.7123862428
 H      3.7427335400     2.8035981796     3.3778243798
 F      3.0683784802     2.7911228406     2.7565526041
 H      5.7912979970     2.2559408485     4.0128892079
 F      5.0920289648     2.7678147379     4.3127173955
 H      6.8183744495     1.0934644651     2.3473040263
 F      6.9056188816     1.3012294577     3.2361859740
 H      0.2846576760     2.5591967791     2.7555877854
 F      0.1391517168     2.1004437564     3.5361405895
 H      3.3792223371     0.7054314252     0.5833390127
 F      3.9498783630     1.3241401755     0.2194156933
