          28
Energy: -4.742281937016799 Kcal/mole
 H      0.3103202450     3.4041776098     4.8499959120
 F     -0.5791434346     3.1811454088     4.8499959120
 H     -1.1413729663     4.1600813305    -4.2060823899
 F     -2.0278845857     4.1600813305    -4.4405736450
 H      3.4091415689    -1.0576555322     1.8244869784
 F      4.3261415689    -1.0576555322     1.8244869784
 H     -4.0006854634     0.6778166724    -5.1647652258
 F     -3.2850380329     0.6778166724    -4.5914086568
 H      3.0879174680     4.3147489135     0.0331836721
 F      2.7443414431     4.3147489135    -0.8170189597
 H     -1.0128548791    -1.0811418729    -0.0636555331
 F     -1.8538030279    -1.0811418729    -0.4292990906
 H     -1.8947685237    -4.0136028004     2.3598850767
 F     -2.6153823228    -3.4465007349     2.3598850767
 H      5.3247646137     2.3953214734    -4.7584634785
 F      4.4110645995     2.4730471715    -4.7584634785
 H     -2.1227913957    -3.2766028390    -2.7673734117
 F     -2.0076271253    -4.1863424671    -2.7673734117
 H     -3.6793577544     3.2532443506     0.1209739090
 F     -3.2719876350     3.2532443506     0.9425203689
 H     -2.8725722213    -0.4929068216     3.3851388311
 F     -3.5977397958     0.0683604844     3.3851388311
 H      4.1956394067    -1.1365030467    -3.8800462586
 F      5.1126394067    -1.1365030467    -3.8800462586
 H      6.2967662285     4.4535948545     3.4422432758
 F      5.5387045634     4.4535948545     2.9262670050
 H      2.2282592936    -5.4386574423     2.8265073009
 F      2.4205588798    -4.5420472320     2.8265073009
