          28
Energy: -112.62988808500646 Kcal/mole
 H      1.8323364987     1.8891554170    -1.3486736578
 F      1.3943330908     1.0863271506    -1.2815261394
 H      5.5593017369     0.9952185308     0.4770836047
 F      6.4132871699     0.8193302773     0.7610927639
 H     -0.2555591927     3.3352405054     0.7479498515
 F      0.5094820219     3.2167634857     1.2394415968
 H      2.2941511055    -0.2281013517     2.3635951659
 F      2.5216056996    -0.3818426132     1.4886568640
 H      1.2343457902     0.8938181713     3.8484853136
 F      1.8432223412     0.2087551509     3.8775886419
 H      2.7652381934     3.7935916252    -0.6871660929
 F      2.3627499879     3.4532625837    -1.4375449225
 H     -1.5337600676     2.6458013943    -0.8197166897
 F     -1.5901564823     3.3163418191    -0.1967528198
 H     -0.2104891835     1.1774011023    -1.6841451795
 F     -1.0958715923     1.3874627033    -1.7975520312
 H      3.2723686888     3.8037397246     1.4488977825
 F      3.4517399172     4.3312049175     0.7205466084
 H      3.7354172511     2.8051705879     3.3845381604
 F      3.0577921484     2.7954491151     2.7667852056
 H      5.7904765426     2.2538583303     4.0145423102
 F      5.0920725411     2.7679252106     4.3126297023
 H      6.8184489360     1.0907571669     2.3499251738
 F      6.9033309277     1.2918525442     3.2405680297
 H      0.2814570996     2.5533603963     2.7539373533
 F      0.1335648650     2.0910741410     3.5319529734
 H      3.3854011659     0.7090363195     0.5866532626
 F      3.9532594736     1.3301242156     0.2224064126
