          4
Energy: -0.00384513467974785 Kcal/mole
 Ne     5.5361786628    -2.0016129129    -3.3888415702
 Ne     3.2786543606     5.8567270857    -6.8792769632
 Ne    -7.0371550321     2.5914678450    -1.2654100909
 Ne    -5.8595175756    -3.0284929263    -0.8795533034
          4
Energy: -0.0016821467686663099 Kcal/mole
 Ne     1.5213380261     0.7698488595     4.2373426620
 Ne    -5.7864743041     6.0952294950     1.2059714865
 Ne     6.4870025564    -2.1058563389    -3.8555527310
 Ne     6.8844623913     4.8668593636     5.0394505409
          4
Energy: -0.0025199952653891136 Kcal/mole
 Ne    -1.1995594913    -2.8084563146    -5.1132680795
 Ne     7.3563595983    -2.6090618683     4.9311378071
 Ne    -6.5307777619    -5.7727774426    -5.4220614854
 Ne    -7.0916040974     3.7217494130     4.1103531015
          4
Energy: -0.006326700434741053 Kcal/mole
 Ne    -0.9568448993    -0.9945214545     6.0258283605
 Ne    -0.8523152713     5.0551509085     2.4140782156
 Ne     7.4185277902    -4.7115321779    -6.8139009470
 Ne     2.8398583778     3.4904040325    -1.2126721370
          4
Energy: -0.044956476359927486 Kcal/mole
 Ne     1.7926144339    -0.4925843604     0.1837859333
 Ne    -2.7561086592    -7.0393337337     1.5431190269
 Ne    -1.7704047904     0.3303327327    -0.2434759168
 Ne     2.4001515574     4.6794493626    -4.2039352582
          4
Energy: -0.0015574440502131401 Kcal/mole
 Ne    -4.3142095157    -5.4478312335    -4.6109150973
 Ne     6.4308214993     5.5912124831    -0.6255063635
 Ne    -5.6944261352     0.9163246272    -3.1797920477
 Ne     7.3166848005    -2.8260767788     6.4537866651
          4
Energy: -0.011591720192294788 Kcal/mole
 Ne     1.8793214157    -0.2627475165    -2.8617085239
 Ne    -7.3971604292     4.1768057796     1.5381088224
 Ne     4.9124415293    -2.8083911798    -0.3175343014
 Ne    -4.6141061289    -6.8396776744    -4.2395613080
          4
Energy: -0.08830788408713225 Kcal/mole
 Ne    -0.5687184220     2.0656695848    -2.5290609199
 Ne     5.1039292081    -1.9159210993     2.6424051747
 Ne     5.6280328968     1.4816918588     3.5196164868
 Ne    -1.8462449940    -0.6789310083    -4.7340234147
          4
Energy: -0.3561652541426129 Kcal/mole
 Ne    -4.4247626596    -3.9835323654     3.8994635043
 Ne    -5.7180409946    -1.1720776297     3.6959083713
 Ne    -3.6787365635    -2.2915052948     1.4476768777
 Ne    -2.6780985787    -0.6832236602     4.4804124135
          4
Energy: -0.4138597746877376 Kcal/mole
 Ne    -4.4748603067    -3.8734994426     4.1395347261
 Ne    -5.7566363506    -1.0732583457     3.6049133625
 Ne    -3.6407826894    -2.2563921176     1.6191068615
 Ne    -2.7665307913    -1.2688704848     4.4564788568
