          4
Energy: -0.0025509922673666355 Kcal/mole
 Ne    -0.6900378582     0.9854072222     4.4592807945
 Ne    -6.3728229513     3.3874082563     3.1455602986
 Ne    -3.2029670242     2.8898893708    -5.5567526997
 Ne     6.0845384975     4.2153928308    -3.8936192375
          4
Energy: -0.055171841850221795 Kcal/mole
 Ne    -0.5737423696     1.8308268728    -1.3842320318
 Ne    -1.7030185097    -1.6998685422    -0.3277453148
 Ne    -6.3693822137    -4.3386501210    -2.7341299542
 Ne    -5.8034760534     0.8492014838    -1.8492784121
          4
Energy: -0.0033671763207741715 Kcal/mole
 Ne    -6.0418936348     7.4673136980    -5.2170949393
 Ne     7.4414556378    -3.7087630508    -5.3804180912
 Ne     1.6067139838    -3.6129517126    -3.0699311018
 Ne     4.1821874082     3.3714091554    -4.6977567041
          4
Energy: -0.022147557320880557 Kcal/mole
 Ne    -4.0887140780    -3.5751189846    -5.1582958537
 Ne     6.1957329222    -4.6372506032     5.8855009600
 Ne     3.8129785169    -5.0733672901     0.7298640543
 Ne    -3.2397150906    -7.2137452320    -2.9633228074
          4
Energy: -0.01052077922094498 Kcal/mole
 Ne     0.3516840076     4.6339160852    -0.3041474576
 Ne    -1.5068754767     0.1577058092    -7.1752360875
 Ne     5.5906963276     7.0868609405    -6.4972734962
 Ne    -0.8535703430     6.8866403245    -4.6719408627
          4
Energy: -0.0036765042030635375 Kcal/mole
 Ne     4.3116128269    -1.5497733664     6.2214144337
 Ne    -1.7028745220     1.9344741977    -4.8056809579
 Ne     6.9888262154     2.3266052630     2.9264056750
 Ne    -6.9662416014     4.6824079694     4.3901730521
          4
Energy: -0.010554853126909354 Kcal/mole
 Ne    -2.7663326889     0.0514751271     0.9380695184
 Ne    -4.7029181103     6.3521417269     4.4554890771
 Ne    -0.7159710651    -2.0429702721    -6.1587582674
 Ne    -7.2935937211     3.1643920580     7.1462108410
          4
Energy: -0.012294842484335503 Kcal/mole
 Ne     5.1683534538    -7.2609074489    -1.6818150835
 Ne     4.9753814529    -2.1119515756    -3.2181676029
 Ne    -3.4921850705     3.8840075175     4.4216311472
 Ne     0.0680474155     4.4433856116     0.7749562530
          4
Energy: -0.3156934895049904 Kcal/mole
 Ne     1.9326456180     1.4531811537    -3.6405032562
 Ne     2.9370446324     1.5307319152     0.4431473939
 Ne    -0.1583187068     1.8934388989    -1.2045645425
 Ne     1.9739767521    -0.9228987065    -1.6295821534
          4
Energy: -0.4139373993724825 Kcal/mole
 Ne     2.4421877058     2.0974897716    -2.9717742118
 Ne     3.0071740150     1.5179216393     0.0335297093
 Ne     0.0719898718     1.9917769556    -0.9520099845
 Ne     1.5746295191    -0.6276321495    -1.7204715557
