          6
Energy: -5.326034002922496 Kcal/mole
 Xe    -0.5118739407    -4.9789396311    -1.7499284505
 Xe     2.7149527075    -7.0960287966     0.4458905086
 Xe    -1.3899613324    -8.6561341178     0.5004235204
 Xe     3.6060903950    -4.9031006275    -3.2750731853
 Xe     2.5998589232    -2.6921381276     0.4050266529
 Xe    -0.4281987221    -4.9527004498     2.6829751892
