          6
Energy: -5.325422572634549 Kcal/mole
 Xe     3.8027274922     0.6547478362    -2.3037943571
 Xe     4.5494281568     2.6476168799    -6.1856373456
 Xe     7.6419958033     2.6686693916    -3.0101754312
 Xe     2.4343269708    -1.1973750878    -6.0624313665
 Xe     6.7017799044    -1.1002863643    -5.1130297315
 Xe     8.8030004759     2.1412325980    -7.2258893484
