          6
Energy: -1.2026833882347767 Kcal/mole
 Xe    -1.0187677295    -1.5070639790     2.9722638542
 Xe    -1.3201213611     1.0006626779    -6.9689057111
 Xe    -2.3546239886    -7.9421729218    -5.5825856990
 Xe     3.3136707216    -3.3709112257    -0.6083347766
 Xe    -2.8027502312    -5.2257819069    -1.8972188228
 Xe     0.2074017048     4.9698605270    -7.2032348649
          6
Energy: -2.383773344891873 Kcal/mole
 Xe     3.8839025253    -0.6734650364     2.6942940775
 Xe     6.1739792736    -5.3636924281     2.4141652685
 Xe     8.3599070383    -7.8786461738    -0.5683282325
 Xe     6.5017286085    -2.3041786001     6.5303825744
 Xe     2.4751547569    -3.4014412654     5.5621212140
 Xe     7.9223916424     8.6995291406    -7.0577234783
          6
Energy: -4.509831895871395 Kcal/mole
 Xe     1.9185590596    -4.9326901681     3.5348291404
 Xe    -0.9519141676    -7.9354807923     2.2910691188
 Xe    -2.9226436577    -4.2737684398     4.2079965003
 Xe    -0.2266445010    -0.6625593930     3.8232044362
 Xe    -1.0380761319    -3.9171291659     0.3844939550
 Xe    -3.0002053060    -7.2796124515    -2.0563884078
          6
Energy: -4.71573567486339 Kcal/mole
 Xe    -4.0312371506    -6.8436904497    -0.5914310323
 Xe    -1.6239930032    -5.7892140400    -3.9260245478
 Xe    -5.2831308513    -7.9863819262    -4.8621792724
 Xe    -8.5990265184    -6.0356646221    -1.7367315113
 Xe    -5.4089754022    -3.5328290813    -3.6319378684
 Xe    -8.3897470719    -4.6369495614    -6.7963938437
          6
Energy: -4.202569165932625 Kcal/mole
 Xe     2.2409960716    -7.3241939017    -3.9146473808
 Xe     1.3465365017    -4.2624916340    -7.1544815611
 Xe     0.4309677916    -7.6677265038     0.6387955674
 Xe     2.6739435592    -2.9740727086    -2.5300748728
 Xe    -1.2522289612    -5.1412429941    -2.4095881397
 Xe    -1.9677811810    -7.4630011785    -6.7272870274
          6
Energy: -4.972170369466312 Kcal/mole
 Xe     4.2336144994    -0.3361406353    -2.9123079117
 Xe     5.8233469148    -4.4709704844    -3.7144491257
 Xe     1.5055239654    -4.5548549593    -3.4205560203
 Xe     6.9685254191    -1.0962382786    -6.2590239837
 Xe     2.8395169905    -2.1780740540    -6.9112835172
 Xe     3.1279238671    -6.8367963140    -6.7442570842
          6
Energy: -4.6331487874102075 Kcal/mole
 Xe     1.6419081643     2.6207020334    -3.1250153157
 Xe     5.9458130077     0.8590034587    -3.8596396793
 Xe     3.3982384521    -0.1919662697    -0.6659467228
 Xe     5.2145517646    -0.5752770392    -7.9127619157
 Xe     1.9828209666    -0.9040191265    -5.2730825422
 Xe     5.5921468386    -3.2950791139    -4.2978264334
          6
Energy: -4.977980800334357 Kcal/mole
 Xe     2.6784616572     1.1180377339    -2.0736284928
 Xe     2.0712013162     0.4499083910    -6.7584861123
 Xe     3.5038066372     4.1418748739    -5.0952694230
 Xe     2.8185254892    -3.0823844213    -4.0477476648
 Xe     6.1170077143     0.2157000530    -4.9038840067
 Xe     5.4506810808     2.1513364867    -8.5592315707
          6
Energy: -5.257757376705324 Kcal/mole
 Xe     3.7499226564     0.4155670378    -2.2279064230
 Xe     4.5494281568     2.6476168799    -6.1856373456
 Xe     7.5669949468     2.6367595212    -2.9391024143
 Xe     2.4607744903    -1.3453333641    -6.0150500240
 Xe     6.7704943857    -0.9890279049    -5.2211112360
 Xe     8.9041780114     2.2425386507    -7.0633254894
          6
Energy: -5.325422572634549 Kcal/mole
 Xe     3.8027274922     0.6547478362    -2.3037943571
 Xe     4.5494281568     2.6476168799    -6.1856373456
 Xe     7.6419958033     2.6686693916    -3.0101754312
 Xe     2.4343269708    -1.1973750878    -6.0624313665
 Xe     6.7017799044    -1.1002863643    -5.1130297315
 Xe     8.8030004759     2.1412325980    -7.2258893484
