          6
Energy: -0.7875971206908645 Kcal/mole
 Xe     4.3568607187     2.5146186871     1.2581015679
 Xe     6.9048639824     4.7306752853    -2.9377201113
 Xe    -5.8774316628     0.1213321300    -4.4798161978
 Xe     7.3515954935     2.7893329842     7.1713909510
 Xe     7.1202623081    -2.0016465416     5.0115719202
 Xe     8.0814998827    -7.8057124577     4.5189161183
          6
Energy: -0.08408783805215142 Kcal/mole
 Xe     6.2645236260    -6.3051226277    -5.8020854522
 Xe     4.3483034826     3.1167188269    -7.1016334691
 Xe    -8.2764881912    -6.8493978425    -4.1346137493
 Xe    -1.6850158412     0.6028595397    -4.8699416150
 Xe     6.6348077211    -3.6968216264     5.3421869122
 Xe     1.8109427049     8.8429635476     6.6233957316
          6
Energy: -3.2148751643297033 Kcal/mole
 Xe    -5.6173440818     2.5653569182    -0.2711260911
 Xe    -4.2863829452    -1.6411926396     2.2316650233
 Xe    -7.7924863107    -6.3403455833     6.9940964057
 Xe    -4.1036002614    -5.7685015082     3.9625537535
 Xe    -4.2122591621    -3.6873120404     7.8502063026
 Xe    -0.4148027781    -2.9377277525     5.1624886014
          6
Energy: -3.562281021092296 Kcal/mole
 Xe     5.6992854375    -6.2172954750     3.8188593808
 Xe     4.6168814310    -2.4172279998     1.5281114438
 Xe     4.9627700424    -3.9086417738     8.8085077304
 Xe     4.4589653798    -5.9120963629    -2.0895970634
 Xe     8.3783104939    -4.2095470479     0.4906661142
 Xe     7.0809294826    -2.6512325031     5.4566332025
          6
Energy: -4.370606459184039 Kcal/mole
 Xe     4.5630358278    -3.9914834346     0.0518059190
 Xe     6.2530734814    -3.3891715817     7.4208248582
 Xe     2.9915624558    -3.3931273370     4.2217958457
 Xe     7.7608169834    -2.4481017661     3.1740753628
 Xe     3.6205901398     0.2466680340     0.7149671835
 Xe     4.6923376093     0.6402434606     5.7314202963
          6
Energy: -4.357945764776407 Kcal/mole
 Xe     2.2624093615    -5.9090567394     1.2251604351
 Xe     5.0883102306    -2.4409332540     2.3871764803
 Xe    -1.2948889848    -2.9558546581     1.7728407106
 Xe     3.5840060881     1.5387291973     4.7615937162
 Xe     1.6583929978    -0.0308799131     1.4865276592
 Xe     1.9910974193    -3.0876557339     5.1201092187
          6
Energy: -4.283484998049111 Kcal/mole
 Xe     3.6235834576    -5.4906724082     3.0969828262
 Xe     3.9368476541    -3.0929006193    -0.7970463527
 Xe     0.1962801966    -4.4849997792     6.3900937838
 Xe    -0.1629411833    -3.3002670669     2.0920641680
 Xe     1.4411764220    -6.5199046823    -0.1131787733
 Xe     2.9435101828    -0.8663784182     4.4347962469
          6
Energy: -4.911781639326343 Kcal/mole
 Xe     3.4320068803    -1.9490177447     2.7132534949
 Xe    -0.7447566562    -4.0571958367     2.0791168837
 Xe     5.9003523784    -4.4525725666     5.0505061429
 Xe    -0.0369024891    -8.5417337566     3.9843398823
 Xe     3.0317419192    -6.1695802257     1.9357646033
 Xe     1.7600046345    -5.1678625157     6.0216271150
          6
Energy: -5.246719371232379 Kcal/mole
 Xe     4.6555877825     0.6844027533     4.7062236803
 Xe     2.7989279655    -2.0938138482     2.0409053936
 Xe     6.7097338826    -2.5060812309     6.8077862231
 Xe     4.8054452432    -5.3984338174     4.5301090169
 Xe     7.2136353640    -1.9267677051     2.5881190455
 Xe     2.3164849922    -2.5811893118     6.4441529745
          6
Energy: -5.500817632734918 Kcal/mole
 Xe     4.6035957702     0.8360720241     4.7445928922
 Xe     2.8031642874    -2.1104787593     2.0512593855
 Xe     6.4907525194    -2.4543944669     6.9740273212
 Xe     4.6759471681    -5.3902298013     4.2799027257
 Xe     7.1513832620    -2.0870464386     2.6451103673
 Xe     2.1600041685    -2.4269302632     6.3937985864
