          6
Energy: -0.09469104024718156 Kcal/mole
 Xe     5.2938022074    -4.8566539070    -1.1575755849
 Xe    -3.7226771662     0.7890889776    -1.8696617781
 Xe     4.5405203914     1.7801332001     5.9493923498
 Xe    -5.8424426755     5.3414507613     5.9809838782
 Xe    -5.2690408202    -4.9881445911     4.3887412603
 Xe     3.7763440289     3.2531072916    -4.1211095040
