          6
Energy: -5.500817632734918 Kcal/mole
 Xe     4.6035957702     0.8360720241     4.7445928922
 Xe     2.8031642874    -2.1104787593     2.0512593855
 Xe     6.4907525194    -2.4543944669     6.9740273212
 Xe     4.6759471681    -5.3902298013     4.2799027257
 Xe     7.1513832620    -2.0870464386     2.6451103673
 Xe     2.1600041685    -2.4269302632     6.3937985864
