          2
Energy: -4.6069464928289144E-4 Kcal/mole
 Kr    -2.7702763006    -5.8252235880    -0.1662120378
 Kr     5.0439235271     4.3842044380    -4.4948931193
          2
Energy: -0.011560698269974927 Kcal/mole
 Kr    -2.6914916129    -4.5995020508    -7.3836532526
 Kr     1.6677378463    -0.5701140963    -2.1458544045
          2
Energy: -0.0060159557649391545 Kcal/mole
 Kr    -3.9590079836     1.5981664903     1.3094588856
 Kr     0.1708037069     7.0123170415    -4.3178528844
          2
Energy: -0.2657784062637861 Kcal/mole
 Kr    -4.8715644745     3.4424597696     3.4421965676
 Kr    -2.2699820346     6.8063923115     2.1948248112
          2
Energy: -0.3154408806279145 Kcal/mole
 Kr    -1.6792613273     4.8022905557     1.4590468068
 Kr     1.3027380656     2.7970285271    -0.3475949119
          2
Energy: -0.001996706748249988 Kcal/mole
 Kr    -5.0575520850     2.5824943958    -2.1639612322
 Kr    -0.6836494308     6.4186800374     6.7231348185
          2
Energy: -0.002975463058940081 Kcal/mole
 Kr    -3.7872679618    -4.8553727518     2.7882455733
 Kr     5.8094178823    -3.5512340516     0.5617291108
          2
Energy: -0.11330994257600042 Kcal/mole
 Kr    -3.6337164527    -0.1161113176    -5.7804320837
 Kr    -3.9462806220    -3.7834830972    -1.9303238117
          2
Energy: -0.30624936670732356 Kcal/mole
 Kr    -3.1419047445    -2.4592146160    -5.0155204541
 Kr    -0.5454850265    -5.3417258845    -5.7837719344
          2
Energy: -0.31699999988546923 Kcal/mole
 Kr    -3.2585724636    -2.5092776321    -5.0569722442
 Kr    -0.3475755848    -5.0140872880    -6.3982270210
