          2
Energy: -7.231968749123699E-4 Kcal/mole
 Kr     4.9916176753    -5.3870975460     0.2063342103
 Kr    -6.9648311392    -1.8333863313     1.8649684036
          2
Energy: -0.0012960056520680502 Kcal/mole
 Kr     3.8790517956     0.6438355643    -3.8424223141
 Kr     5.3522291235    -1.8676147325     7.1965423983
          2
Energy: -0.03247060478812885 Kcal/mole
 Kr     0.5601493917    -4.3121930248     3.2292239387
 Kr     0.0743932208     2.2984688792     3.7050945211
          2
Energy: -0.2687399256026999 Kcal/mole
 Kr     0.5744880361     1.6694889622    -1.3771073951
 Kr     2.5989114714     0.7645171992    -4.5249512910
          2
Energy: -9.509727744501576E-4 Kcal/mole
 Kr    -0.5768707985     4.3996076996    -5.0306414571
 Kr     5.5950995479    -5.8219621555    -3.6367244036
          2
Energy: -0.07698838031418102 Kcal/mole
 Kr     1.2418298734     7.3440592758     5.8116182915
 Kr    -4.1330426316     5.5234637300     5.1248418882
          2
Energy: -0.2729304016124843 Kcal/mole
 Kr    -1.3476444938    -1.9817096834     3.6341005318
 Kr    -0.0229511166    -4.3126137104     0.8591475480
          2
Energy: -0.1636810749860876 Kcal/mole
 Kr    -1.8007900088    -5.6660060241    -1.9129555191
 Kr    -6.4941020982    -6.9378530721    -2.8874160695
          2
Energy: -0.31686591627003013 Kcal/mole
 Kr    -7.1177321963    -5.7456180080     4.2389624858
 Kr    -7.3123429268    -3.2156860228     7.4363998779
          2
Energy: -0.3169999993600223 Kcal/mole
 Kr    -6.7569366328    -5.6025624241     4.1159785199
 Kr    -7.3939445671    -2.8390211216     7.0321943992
