          8
Energy: -28.931311827009836 Kcal/mole
 H      2.3782219485    -4.7292767063    -1.2717011826
 F      1.8192465062    -4.5745779710    -1.9819854611
 H      0.2592630658    -4.0423298166     0.7799302407
 F      0.8224119154    -4.1844371711     1.4895483584
 H      2.3028966589    -4.6564107622     0.8674538999
 F      2.9749102781    -4.8796433492     0.2848271689
 H      0.3329423200    -4.1276403466    -1.3597678528
 F     -0.3437761193    -3.9172564857    -0.7778058395
