          8
Energy: -28.93193060859653 Kcal/mole
 H      2.3688105671    -4.7354962998    -1.2727815066
 F      1.8097861554    -4.5659657119    -1.9796337450
 H      0.2662522444    -4.0215174916     0.7819104543
 F      0.8253738784    -4.1907181073     1.4887648595
 H      2.3003905128    -4.6785879726     0.8645574975
 F      2.9701470651    -4.9050491797     0.2805793453
 H      0.3345859654    -4.0787280777    -1.3553992529
 F     -0.3352756557    -3.8525941293    -0.7714147959
