          8
Energy: -28.559768209084297 Kcal/mole
 H      1.0282347048    -5.1361700356    -3.2198278322
 F      1.9176394933    -5.3435122470    -3.1370188377
 H      0.5553724948    -6.0508133651    -0.4099733134
 F     -0.2960576697    -5.7105687858    -0.3962146377
 H     -0.5865844787    -5.1418384287    -1.9382527486
 F     -0.5795892032    -4.9076824131    -2.8248253776
 H      2.1863110909    -6.2510670866    -1.6936683520
 F      2.0627994226    -6.6298804230    -0.8677541168
          8
Energy: -28.508807181551788 Kcal/mole
 H      0.0744487331    -7.2967119186    -3.3108443812
 F      0.9618102957    -7.1952325640    -3.5186433170
 H      0.4466670650    -5.8126010097    -0.6882629852
 F     -0.4254711845    -5.9810721945    -0.4604882419
 H     -1.2161084798    -6.8678368749    -1.6353790876
 F     -1.3987437627    -7.2993349983    -2.4236320438
 H      1.8309845386    -6.4823148992    -2.2626151049
 F      2.0046723193    -6.0328683216    -1.4824104338
          8
Energy: -28.63415180112918 Kcal/mole
 H     -0.0243109297    -6.4719997802    -3.4324199181
 F      0.8136396752    -6.8061922861    -3.5968679424
 H      0.6691989576    -5.7761482688    -0.6184636452
 F     -0.2020382136    -5.6275393596    -0.3740251385
 H     -1.0990757530    -5.7169480283    -1.7640522532
 F     -1.3397521296    -5.8098361373    -2.6440157075
 H      1.8112380493    -6.2666066390    -2.3359406474
 F      2.0337464114    -5.9644787358    -1.4992222008
          8
Energy: -28.413537940357145 Kcal/mole
 H      0.1788452760    -5.0922988519    -3.3742260655
 F      1.0650332327    -5.2670130552    -3.5324501240
 H      0.3671162148    -5.8938283565    -0.3857452708
 F     -0.4007381753    -5.4426052058    -0.1673733317
 H     -1.1167811603    -5.1174261143    -1.6595047430
 F     -1.2996734577    -5.0331895428    -2.5541239959
 H      1.5697944903    -6.2151505928    -2.2052370302
 F      1.6027732659    -6.4891267989    -1.3307437833
          8
Energy: -28.747985400248922 Kcal/mole
 H     -0.3441032956    -5.6033412022    -3.6677074233
 F      0.2823437373    -6.2495441533    -3.8434198616
 H      0.4760305005    -5.4411903502    -0.6445094128
 F     -0.0459834043    -4.7127884499    -0.4500327953
 H     -0.9697692625    -4.4776326761    -1.8588376038
 F     -1.2781184815    -4.5324141559    -2.7207011363
 H      1.0121075756    -6.6819545594    -2.3898224182
 F      1.2116716562    -6.7128029206    -1.4953328674
          8
Energy: -28.827533962646584 Kcal/mole
 H      0.9565834012    -4.7660014977    -3.9809014030
 F      1.4126367836    -5.4521664443    -4.3834954648
 H      1.1048685687    -6.0755987130    -1.2770576030
 F      0.5782208584    -5.4291406683    -0.8954515422
 H      0.1920657415    -4.2561125400    -2.0613732650
 F      0.1698500019    -3.8166539409    -2.8659051790
 H      1.9364226533    -6.5353569849    -3.1693102349
 F      2.0658333560    -6.9120975896    -2.3433511640
          8
Energy: -28.736860515457522 Kcal/mole
 H      1.0519278953    -4.0524924522    -4.4309435344
 F      1.8438730796    -4.3770953123    -4.7601012601
 H      1.4404255575    -5.2897039982    -1.7200686561
 F      0.6646033720    -4.9268561411    -1.3924555168
 H      0.0294677368    -3.9959184741    -2.6039115477
 F     -0.1359709885    -3.5688891386    -3.3983704673
 H      2.5200114682    -5.2893979851    -3.5576082049
 F      2.6530439682    -5.7616552376    -2.7829053964
          8
Energy: -28.572625508143943 Kcal/mole
 H      1.1234763221    -4.1435543297    -4.6507774319
 F      1.5363532750    -4.8770393300    -5.0146749121
 H      2.3372332482    -4.8093542151    -1.8499309834
 F      1.8869045079    -4.1149628294    -1.4550719843
 H      1.0483423120    -3.2497134045    -2.6427649398
 F      0.6820151307    -2.9981005745    -3.4448773883
 H      2.6048554291    -5.6227564207    -3.8555762417
 F      2.9987442559    -5.8749500729    -3.0668183867
          8
Energy: -28.779727248805557 Kcal/mole
 H      0.8032254796    -4.8483704613    -3.8901276461
 F      1.3068818783    -5.5713969626    -4.1440014543
 H      2.6101693602    -3.9768350943    -1.7092470965
 F      2.0631339062    -3.3075760427    -1.4030877690
 H      0.7507292686    -3.3081299133    -2.4324423909
 F      0.2184459708    -3.5132152903    -3.1504281004
 H      2.6944347628    -5.5098076727    -3.1962407893
 F      3.2682588581    -5.2727084960    -2.5214083004
          8
Energy: -28.564346328973954 Kcal/mole
 H      0.8691611921    -4.7150384516    -4.7113978064
 F      1.6637298727    -5.0729839780    -4.9967477879
 H      1.6627644910    -4.7797413224    -1.9333351532
 F      0.7957296129    -4.6323664487    -1.6736812166
 H     -0.2524851767    -4.3669432440    -2.9669911510
 F     -0.4888174551    -4.2459203015    -3.8447095008
 H      2.6850766350    -5.1527958095    -3.6856004367
 F      3.0401524043    -5.0981006437    -2.8419069871
          8
Energy: -28.705389628450433 Kcal/mole
 H      0.0948856441    -5.4361472408    -4.9726489313
 F      0.8110626987    -5.7618873061    -5.4436827266
 H      1.0548461080    -6.7209049564    -2.3675943025
 F      0.3342924823    -6.3625734253    -1.9279467318
 H     -0.5854586216    -5.4312240390    -2.9612446117
 F     -0.8961488154    -5.0062425678    -3.7120783833
 H      1.7480528353    -6.7491210026    -4.4210375099
 F      2.0188515216    -7.2311728741    -3.6894754382
          8
Energy: -28.753922357512465 Kcal/mole
 H      0.0055920901    -5.2347712920    -4.9896538212
 F      0.5977001960    -5.7674866408    -5.4440890180
 H      1.5028901765    -5.4336151534    -2.2644989144
 F      0.8904673646    -4.9158928251    -1.8197620369
 H     -0.3069135543    -4.4948905353    -2.9620538173
 F     -0.7433736366    -4.3981944630    -3.7627044690
 H      1.7153908902    -6.1892316142    -4.3229712674
 F      2.1781056639    -6.3077135320    -3.5401902806
          8
Energy: -28.5184401335315 Kcal/mole
 H     -0.5674760710    -5.7579154598    -4.9020835292
 F     -0.0866565749    -6.3581043937    -5.4015581089
 H      1.4768385325    -5.8289262318    -2.5609946860
 F      0.9472140479    -5.2466296807    -2.0905506065
 H     -0.5412428481    -4.9275760365    -2.8465614049
 F     -1.1312106869    -4.8434565935    -3.5435197024
 H      1.2759994081    -6.7694257369    -4.5219193634
 F      1.9034642168    -6.8630224798    -3.8597890413
          8
Energy: -28.774813638778227 Kcal/mole
 H     -1.6993757447    -6.4552667000    -3.8379155789
 F     -1.4659917702    -7.3377209486    -3.7501920386
 H      0.4639046255    -5.5736024766    -1.8603265603
 F      0.1498090731    -4.7121313851    -1.8502994750
 H     -1.1256325085    -4.5668703635    -2.9498829531
 F     -1.7609176523    -4.7828322178    -3.5749127632
 H     -0.1131464186    -7.4243222852    -2.7638254904
 F      0.5713903504    -7.2592622642    -2.1764128575
          8
Energy: -28.7970393432108 Kcal/mole
 H     -1.4366167324    -5.9871782415    -4.3110750442
 F     -0.9879572551    -6.7402510949    -4.5802867657
 H     -0.3877879515    -6.3143076075    -1.4857399728
 F     -0.9266173380    -5.6508264352    -1.1535583565
 H     -1.6985463858    -4.9199394494    -2.4396803221
 F     -2.0242479161    -4.7440575150    -3.2786517508
 H     -0.0671152012    -7.2658504163    -3.3312009014
 F      0.3342607787    -7.4120593349    -2.5197766752
          8
Energy: -28.734764395944694 Kcal/mole
 H     -1.0079801225    -6.4652157623    -4.3060920565
 F     -0.2200449552    -6.8320901427    -4.5984109940
 H     -0.0470133897    -5.9169113925    -1.4038230919
 F     -0.8388498299    -5.5391734413    -1.1369933856
 H     -1.8251568088    -5.4999200576    -2.5194843271
 F     -2.1326629573    -5.6878055849    -3.3627090879
 H      0.8176767526    -6.7762018455    -3.2873178592
 F      1.1298074109    -6.6425504435    -2.4354958386
          8
Energy: -28.837881095920324 Kcal/mole
 H     -1.4647866665    -7.0281880797    -4.3695247306
 F     -0.6394636952    -7.3237405370    -4.6385595572
 H     -0.4526881410    -6.0756744603    -1.6884292633
 F     -1.2614569080    -5.6980573380    -1.4782212935
 H     -2.3336387466    -6.0908787279    -2.6706924613
 F     -2.6844668186    -6.3674129698    -3.4715279481
 H      0.3943816548    -7.1512460397    -3.3318768399
 F      0.7252088189    -6.9349069113    -2.5044472242
          8
Energy: -28.56803903298791 Kcal/mole
 H     -1.0125501174    -6.8927657112    -4.3751419400
 F     -0.2532430652    -7.0215821781    -4.8728849644
 H      0.1003704389    -5.2708382183    -2.1547311963
 F     -0.6668406298    -5.2467514405    -1.6530380598
 H     -1.8487664691    -6.0730592688    -2.5659565429
 F     -2.2441513852    -6.4973403152    -3.2762701087
 H      0.8607389070    -6.0727326840    -4.0605239725
 F      1.1883034377    -5.5192007848    -3.4069240071
          8
Energy: -28.87315047485677 Kcal/mole
 H     -0.7684706137    -6.7038075296    -4.1457485248
 F      0.0671618071    -6.4829948361    -4.4520967120
 H      0.0943735033    -6.6432974015    -1.2504890510
 F     -0.7375395541    -6.8436252839    -0.9208249730
 H     -1.7527935088    -7.0600950372    -2.2782830147
 F     -2.0374040949    -7.1198131466    -3.1479493655
 H      1.0534961428    -6.2947573444    -3.1307020827
 F      1.3760652831    -6.2673948033    -2.2727455330
          8
Energy: -28.809049546392828 Kcal/mole
 H     -1.0859973145    -5.8252382748    -4.0961470237
 F     -0.2982554410    -5.4489656821    -4.3768081657
 H      0.0996875111    -7.0136520885    -1.5647545511
 F     -0.6522595032    -7.4827478248    -1.3293530262
 H     -1.8366904655    -7.0667453683    -2.4469753640
 F     -2.2397946049    -6.6403559498    -3.1516654495
 H      0.7757784992    -5.6897677248    -3.1297360565
 F      1.1421615136    -5.9680706966    -2.3365148121
          8
Energy: -28.844452495221276 Kcal/mole
 H     -1.5426056984    -5.1614342524    -3.5052701853
 F     -0.7843295371    -4.7947459121    -3.8678249043
 H      0.0234921424    -6.2920423255    -1.2461609134
 F     -0.7134132080    -6.7106281211    -0.8959532091
 H     -2.0703321842    -6.3240611909    -1.8097909406
 F     -2.5862538935    -5.9493686218    -2.4688199753
 H      0.5601195275    -5.1083186126    -2.9204910374
 F      1.0741900845    -5.4018220559    -2.2201509834
          8
Energy: -28.73894287803043 Kcal/mole
 H     -2.1373186069    -4.0254166579    -2.0851744480
 F     -1.4331399159    -3.5418379839    -2.4186006575
 H     -0.4519365370    -6.2578852582    -0.8455540443
 F     -1.1914724836    -6.7317080640    -0.5819871034
 H     -2.5629666825    -5.8185950114    -1.0415098706
 F     -3.0916165120    -5.1590106066    -1.3969909118
 H     -0.0361344317    -4.3981517889    -1.9356320339
 F      0.4694669012    -5.0337550676    -1.5098800353
          8
Energy: -28.762974539064032 Kcal/mole
 H     -2.0114672597    -3.7828605740    -0.2108857465
 F     -1.4521356029    -3.1958441041    -0.6391949359
 H     -0.2680985626    -6.0159154011    -0.9596069421
 F     -0.8623412374    -6.5828227929    -0.5517090963
 H     -2.1532993992    -5.7705020060     0.1610227866
 F     -2.6984630529    -5.0904295521     0.4459561965
 H     -0.0981616838    -3.9737446656    -1.2704315677
 F      0.4835850854    -4.6351446463    -1.5254016876
          8
Energy: -28.78308498356671 Kcal/mole
 H     -1.2433152858    -4.0060337377     0.2035481846
 F     -0.7218760900    -3.4302262553    -0.2837257715
 H      0.1130887450    -6.4456759934    -0.8436535050
 F     -0.4532870732    -7.0227197730    -0.4110706702
 H     -1.5997250623    -6.1066590241     0.4801281291
 F     -2.0253035378    -5.3611585347     0.8026199609
 H      0.4290921342    -4.3584795906    -1.1554060963
 F      0.8676092487    -5.0964788650    -1.4778170317
          8
Energy: -28.82846620597803 Kcal/mole
 H     -1.8241204664    -4.0503203465    -1.1734553202
 F     -1.1766031453    -3.4383168483    -1.3903931848
 H      0.1649472307    -6.2261595158    -0.7997984281
 F     -0.4823123912    -6.8755915174    -0.7863055720
 H     -1.9787330041    -6.1115208615    -0.7863037988
 F     -2.6203731775    -5.4566381325    -0.8040660938
 H      0.3471938878    -4.1350588827    -1.1438301679
 F      0.9844589548    -4.7678895815    -0.9586072187
          8
Energy: -28.75730368083879 Kcal/mole
 H     -1.8821846276    -4.0233081922    -1.0117303450
 F     -1.2312421644    -3.3911601128    -1.1442132321
 H     -0.1554149794    -5.8348413270     0.7440586462
 F     -0.8418815756    -6.4342460354     0.8458751863
 H     -2.2001561340    -5.8830342334    -0.0261653825
 F     -2.7467398648    -5.3503867210    -0.5345174777
 H      0.1507121174    -3.9056824757    -0.3250956762
 F      0.7126264400    -4.4008454169     0.2040120214
          8
Energy: -28.7760998036087 Kcal/mole
 H     -2.0379056080    -4.1149806826    -1.0600235719
 F     -1.3166545703    -3.5796296331    -1.2446453323
 H     -0.2983476758    -6.2256830428     0.1957814726
 F     -1.0129327478    -6.7002711928     0.5198544008
 H     -2.4032013235    -5.9690054504    -0.0197537134
 F     -2.9650359341    -5.3800417395    -0.4420718609
 H      0.1171386912    -4.3779233703    -0.7469144299
 F      0.6712271276    -5.0474213253    -0.4542585006
          8
Energy: -28.76434510133234 Kcal/mole
 H     -2.1320542119    -4.0507649945    -0.6275657271
 F     -1.4834964615    -3.4539929673    -0.8807948564
 H     -0.4088896229    -5.7035976376     1.3068986342
 F     -1.0763141233    -6.3109158292     1.4699880283
 H     -2.4120288765    -5.8027595792     0.5727504378
 F     -2.9747242586    -5.3040428425     0.0478270877
 H     -0.1174533921    -3.9685054645    -0.0471681210
 F      0.4259898303    -4.4028723293     0.5502294775
          8
Energy: -28.729597118757624 Kcal/mole
 H     -1.8037034867    -4.7687326317    -1.2429587044
 F     -1.1523822023    -4.1424787302    -1.3994056135
 H     -0.5458778693    -5.5286784873     1.5314905224
 F     -1.2044773964    -6.1393522553     1.7164586598
 H     -2.2370368103    -6.1509930927     0.4308271632
 F     -2.6618752963    -5.9475970413    -0.3559582632
 H     -0.1026937795    -4.1785394392    -0.1151525239
 F      0.3640501613    -4.4078971073     0.6401183903
          8
Energy: -28.823935162068494 Kcal/mole
 H     -2.5072223643    -4.7434797889    -1.0885194102
 F     -2.1871510161    -3.8858358958    -1.1422807778
 H     -0.5445708912    -5.4381381463     1.0585780584
 F     -0.7892877776    -6.3212329620     1.0247226013
 H     -2.1061126049    -6.5463458074    -0.0378811005
 F     -2.7234216579    -6.3448543256    -0.6853528882
 H     -1.0348374492    -3.6308671457     0.0847190522
 F     -0.4458855085    -3.8046549084     0.7657641499
          8
Energy: -28.844865997210093 Kcal/mole
 H     -2.0839090209    -4.8557619299    -1.6107300474
 F     -1.8450379903    -3.9709129762    -1.5812010826
 H     -0.4690610070    -5.4349800250     0.9256437611
 F     -0.7116634653    -6.3192534436     0.9353168388
 H     -1.7233632545    -6.6020538246    -0.3763621357
 F     -2.2162488650    -6.4953364026    -1.1422369079
 H     -0.8212148745    -3.7244410106    -0.2754500434
 F     -0.3523063941    -3.8455924716     0.5032258587
          8
Energy: -28.78825334514397 Kcal/mole
 H     -1.4234260784    -5.0049471102    -2.1373697610
 F     -1.4411341307    -4.0884869459    -2.1113660660
 H     -0.3419444431    -5.2689734962     0.6622696287
 F     -0.3647869092    -6.1856865658     0.6601792396
 H     -0.8951081153    -6.6899374459    -0.8784723448
 F     -1.2582346407    -6.6569182432    -1.7198627767
 H     -0.8320168585    -3.6681330364    -0.6479236828
 F     -0.4745172892    -3.6758058228     0.1964839122
          8
Energy: -28.821727459215197 Kcal/mole
 H     -0.3483947674    -4.8824675492    -2.5232488119
 F     -0.3918919819    -3.9787152279    -2.3741557737
 H     -0.9413329210    -5.5257715532     0.4531616190
 F     -0.8272708182    -6.4223201445     0.2979860407
 H     -0.5615977541    -6.6744079943    -1.3177298610
 F     -0.4273921034    -6.5559274150    -2.2170852944
 H     -0.8142594789    -3.7660542520    -0.7779526241
 F     -1.0482967558    -3.8651174072     0.1031274201
          8
Energy: -28.790914397643974 Kcal/mole
 H     -0.5436704972    -4.8021279811    -2.5637597527
 F     -0.6772199335    -3.9064317373    -2.4196008582
 H     -0.8892363257    -5.4375040338     0.3617764439
 F     -0.7955260946    -6.3474162821     0.2972234197
 H     -0.4422883968    -6.5917883402    -1.3352558314
 F     -0.3483923344    -6.4340337140    -2.2336911420
 H     -0.8866425207    -3.6641046589    -0.8073768229
 F     -0.9951861823    -3.8040186096     0.0923627839
          8
Energy: -28.79040180188278 Kcal/mole
 H     -0.6856285115    -4.8468747020    -2.3063252594
 F     -0.4819322762    -3.9564493808    -2.2254575221
 H     -0.0948688875    -5.4168632814     0.6251052580
 F     -0.2272765734    -6.3186956871     0.5248280587
 H     -0.7006928814    -6.6032689721    -1.0599668046
 F     -0.8625983012    -6.4666946606    -1.9521680669
 H     -0.0181198537    -3.6646966618    -0.6542855862
 F      0.1367906363    -3.8015281667     0.2391173908
          8
Energy: -28.848354175912135 Kcal/mole
 H     -0.8656969963    -4.9473156675    -2.2207353636
 F     -0.8922962061    -4.0384346553    -2.1019212745
 H     -0.7086705837    -5.5141766001     0.8130878653
 F     -0.8242375181    -6.4170332823     0.7018085095
 H     -0.8839953995    -6.7024689632    -0.9610895873
 F     -0.8800895392    -6.5960405998    -1.8718841568
 H     -0.6837646071    -3.7566221111    -0.4772345965
 F     -0.5877672894    -3.8736854832     0.4271821668
          8
Energy: -28.757406077661358 Kcal/mole
 H     -0.4199693299    -5.0140377124    -2.4128567241
 F     -0.4213962732    -4.0991877903    -2.3501145226
 H      0.3272360062    -5.3708404795     0.4666916715
 F      0.3833703156    -6.2826550334     0.3871168095
 H     -0.0166886905    -6.7165529043    -1.2275635365
 F     -0.2446030283    -6.6202515229    -2.1105528335
 H     -0.0416632304    -3.6177887184    -0.7548303382
 F      0.2056442301    -3.7199432804     0.1222628526
          8
Energy: -28.81727845673268 Kcal/mole
 H     -0.7036840217    -4.9303017735    -2.3102661124
 F     -0.4538265346    -4.0481095493    -2.2962263216
 H      0.1349447831    -5.2092908186     0.5677760245
 F      0.0209475921    -6.1189040005     0.5454713239
 H     -0.6215036394    -6.5692036870    -0.9563019546
 F     -0.9709209779    -6.5395551339    -1.8036020708
 H      4.435258E-40    -3.5887971456    -0.7622497231
 F      0.1863818490    -3.6030852240     0.1355875622
          8
Energy: -28.88096374971545 Kcal/mole
 H     -0.6323181130    -4.9719919009    -2.3041638318
 F     -0.4598921610    -4.0714604041    -2.3183523544
 H      0.1457823061    -5.2887055907     0.5971682680
 F      0.0552876006    -6.2008376205     0.5704312432
 H     -0.5531802919    -6.6261717472    -0.9499689493
 F     -0.8098554641    -6.5655844794    -1.8282263370
 H     -0.0319160862    -3.6335943868    -0.7494796147
 F      0.1918406093    -3.6882309081     0.1381220931
          8
Energy: -28.83362313598826 Kcal/mole
 H     -0.5790718296    -4.8429510070    -2.3096360450
 F     -0.4848024960    -3.9331830319    -2.2438749315
 H      0.1854804991    -5.2805714861     0.6239161842
 F      0.1079012373    -6.1906124101     0.5420872479
 H     -0.3763888525    -6.5473979305    -0.9872536706
 F     -0.5843719948    -6.4890189956    -1.8784460811
 H     -0.0848564997    -3.5975344479    -0.6499192539
 F      0.1365664554    -3.6590716501     0.2378160939
          8
Energy: -28.82890950706536 Kcal/mole
 H     -0.3381005186    -4.7260815798    -2.2468094085
 F     -0.3274970216    -3.8148324369    -2.1448213436
 H      0.4220954754    -5.2667454388     0.6232792450
 F      0.3343461708    -6.1747428772     0.5298463207
 H     -0.0588149875    -6.4762709986    -1.0765964802
 F     -0.2817441573    -6.3635198945    -1.9589109218
 H      0.1900618530    -3.4539940594    -0.5994659813
 F      0.4692099493    -3.6017600846     0.2614234089
          8
Energy: -28.86225816605051 Kcal/mole
 H     -0.3029315675    -4.6375638614    -2.3417959137
 F      0.0011056533    -3.7724473035    -2.3369266592
 H      0.7820927742    -5.3117415547     0.4377792398
 F      0.5574596513    -6.1999223286     0.3982334075
 H     -0.2362794584    -6.4297094284    -1.0647845792
 F     -0.5838754667    -6.2513133166    -1.8943874012
 H      0.6511753543    -3.5355219132    -0.8057606248
 F      0.9524752246    -3.6887834555     0.0466584552
          8
Energy: -28.75340284710697 Kcal/mole
 H     -0.4046317340    -4.5921789153    -2.1388621008
 F     -0.0467019694    -3.7557612447    -2.0240545923
 H      1.0292909401    -5.4383308807     0.3394947115
 F      0.7822612496    -6.3087572318     0.1904199006
 H     -0.2776633616    -6.4070152815    -1.1261865719
 F     -0.7806718909    -6.1839448939    -1.8597470818
 H      0.7808395444    -3.6193697256    -0.5550959414
 F      1.1991175349    -3.8300598310     0.2332835372
          8
Energy: -28.88467095065596 Kcal/mole
 H     -0.9727625748    -4.3143903291    -1.8034504621
 F     -0.7034522341    -3.4561191581    -1.6253169800
 H      0.9592946331    -5.3936504129     0.2763852500
 F      0.6945073429    -6.2606670992     0.1383317944
 H     -0.4671352763    -6.2584304231    -1.0685869101
 F     -1.0419831202    -5.9884007911    -1.7300420894
 H      0.4955418163    -3.4501741775    -0.4246683044
 F      1.0934613171    -3.7439383375     0.2054776222
          8
Energy: -28.83884329821157 Kcal/mole
 H     -0.8069291158    -4.4253430757    -2.1331428112
 F     -0.7114199023    -3.5386405427    -1.9197755035
 H      0.8009314597    -5.3896790038     0.2088076831
 F      0.8094654358    -6.2720510817    -0.0406631313
 H     -0.1790477265    -6.3565114141    -1.3961274156
 F     -0.6974760975    -6.0842947476    -2.1018321065
 H      0.1657784520    -3.4971419982    -0.5093181830
 F      0.6399748016    -3.7349826271     0.2386515071
          8
Energy: -28.875868159369332 Kcal/mole
 H     -1.3259798662    -4.4369068061    -1.5159403314
 F     -1.3272781182    -3.5857626069    -1.1747060033
 H      0.8389299996    -5.4876180866     0.3529791014
 F      0.8088230313    -6.3443124595     0.0273146697
 H     -0.2971084940    -6.3373797054    -1.2120771246
 F     -0.9459855076    -6.0609188776    -1.7980950697
 H     -0.1604601804    -3.6064732109     0.0129197367
 F      0.5011273676    -3.8486580023     0.5998928563
          8
Energy: -28.843897526172498 Kcal/mole
 H     -1.3524490600    -4.4889890764    -1.3625491426
 F     -1.2618324305    -3.6279253157    -1.0604782462
 H      0.8278776725    -5.5675480080     0.3941595301
 F      0.7539107957    -6.4236778463     0.0740664170
 H     -0.5003791819    -6.3879544852    -0.9991324549
 F     -1.1944257485    -6.1302625532    -1.5402269306
 H     -0.0798707907    -3.6858479875     0.1165701139
 F      0.5942894687    -3.9680178193     0.6704447663
          8
Energy: -28.865116749379922 Kcal/mole
 H     -1.2767115576    -4.3735694859    -1.4182207511
 F     -1.1073440647    -3.5301111768    -1.1007593628
 H      0.6361510880    -5.6276735971     0.5152457091
 F      0.5288185806    -6.4669752964     0.1617752148
 H     -0.6112148408    -6.3506375776    -1.0509827821
 F     -1.2043310739    -6.0224428565    -1.6685508828
 H     -0.0532452250    -3.6278583425     0.2355687218
 F      0.5222527738    -3.9929103729     0.8491060626
          8
Energy: -28.8633122119422 Kcal/mole
 H     -1.2850662192    -4.2387173070    -1.4928221036
 F     -1.1091789698    -3.4171327991    -1.1254645504
 H      0.5723790012    -5.6383777942     0.4981646401
 F      0.4261215856    -6.4652046534     0.1295793537
 H     -0.6438938534    -6.2766429961    -1.1542880142
 F     -1.2478764039    -5.8972628482    -1.7306253999
 H     -0.0542712801    -3.5993672509     0.1537203180
 F      0.4992853844    -3.9808063748     0.7773934808
          8
Energy: -28.87421541373203 Kcal/mole
 H     -0.8861567829    -4.2887390638    -1.6198062387
 F     -0.6318733346    -3.4556045807    -1.3332475869
 H      0.3328663389    -5.7014306384     0.7457737198
 F      0.0907416999    -6.5293445060     0.4346093144
 H     -0.7692181214    -6.3331452284    -0.9798252118
 F     -1.1331603606    -5.9323591946    -1.7199641188
 H      0.1844874989    -3.6769394185     0.1180896647
 F      0.5530286476    -4.0652842247     0.8625725276
          8
Energy: -28.843357546672195 Kcal/mole
 H     -0.2011326855    -4.4923504168    -1.8952138725
 F      0.1764554498    -3.6773272335    -1.7106782096
 H      0.3071678532    -5.6824818030     0.9112584720
 F     -0.1016659749    -6.4831084888     0.7303142513
 H     -0.5803408897    -6.3952054377    -0.8708147817
 F     -0.7421012420    -6.0740677861    -1.7143746178
 H      0.6699892087    -3.7734238746    -0.1365235945
 F      0.8318199410    -4.0648161144     0.7177540984
          8
Energy: -28.8763077907669 Kcal/mole
 H     -0.4060710179    -4.4508171301    -1.8127690783
 F      0.0303910115    -3.6647883565    -1.6323565952
 H      0.3927547372    -5.6622209526     0.8111812062
 F     -0.0289795347    -6.4570591714     0.6343722420
 H     -0.6852159666    -6.3256199513    -0.8682099432
 F     -0.9616122058    -6.0308105065    -1.6913633373
 H      0.7078468696    -3.7657601865    -0.1044484378
 F      0.9763714635    -4.1082204620     0.7027098503
          8
Energy: -28.890422977124416 Kcal/mole
 H     -0.2360795875    -4.5284587313    -1.9153614906
 F      0.1545966598    -3.7114092047    -1.7715173357
 H      0.4107671786    -5.6040014238     0.8332883843
 F     -0.0162664733    -6.4059322336     0.7090376844
 H     -0.6029738645    -6.3605183950    -0.8433142836
 F     -0.8157405279    -6.0749205963    -1.6883309961
 H      0.7901951932    -3.7941326071    -0.2208480199
 F      1.0402194041    -4.0887498557     0.6107634103
          8
Energy: -28.855338048693227 Kcal/mole
 H     -0.1985265587    -4.5931106342    -1.9385756636
 F      0.1319598413    -3.7469738415    -1.8131951725
 H      0.4557007556    -5.5197399354     0.9202455384
 F      0.0611998112    -6.3363677162     0.7846834770
 H     -0.5076257511    -6.3729573502    -0.8052711581
 F     -0.6949855361    -6.1577287009    -1.6767422933
 H      0.7105295719    -3.6617602987    -0.2221171370
 F      0.9366423997    -3.9074327615     0.6319361576
          8
Energy: -28.87465936223279 Kcal/mole
 H     -0.1856360183    -4.6431509509    -1.9666084090
 F      0.1275828500    -3.7873152371    -1.8649807966
 H      0.5139901782    -5.5004866635     0.8764573761
 F      0.2007187605    -6.3540435776     0.7573330158
 H     -0.3365590737    -6.4611624621    -0.8474409118
 F     -0.5519338068    -6.2313358217    -1.7086507815
 H      0.6942003589    -3.7048519480    -0.2984625957
 F      0.9065893011    -3.9026163555     0.5714047369
          8
Energy: -28.85814569223274 Kcal/mole
 H     -0.2428278472    -4.5821884999    -1.9510243931
 F      0.1603405789    -3.7690208925    -1.8202472453
 H      0.5922231495    -5.5247778007     0.8001573882
 F      0.2099613740    -6.3478967397     0.6688556466
 H     -0.4550955318    -6.4377968348    -0.8720633690
 F     -0.7326492052    -6.1687969196    -1.7036233512
 H      0.7855873718    -3.7106865699    -0.2688308348
 F      1.0435419609    -3.9345833705     0.5821795368
          8
Energy: -28.87874293088612 Kcal/mole
 H     -0.1754482184    -4.6476623221    -1.9630602282
 F      0.1743146988    -3.8109643885    -1.8270768848
 H      0.6341279970    -5.5839526007     0.7927519532
 F      0.2454673957    -6.4023807928     0.6513050327
 H     -0.3528207278    -6.4910175996    -0.9225156197
 F     -0.5986845232    -6.2618787533    -1.7757069131
 H      0.8750617415    -3.7836163923    -0.3326091485
 F      1.1763166709    -4.0205247073     0.5004628279
          8
Energy: -28.897801218016156 Kcal/mole
 H     -0.2088640889    -4.6198507032    -1.9556435683
 F      0.1848944782    -3.7972382329    -1.8599779289
 H      0.6199734454    -5.5290562797     0.7722930153
 F      0.2176103954    -6.3467556326     0.6705052747
 H     -0.4549328412    -6.4126422832    -0.8747551059
 F     -0.7016312433    -6.1819985781    -1.7272997556
 H      0.8840913378    -3.7298205180    -0.3349303190
 F      1.1442027272    -3.9666344205     0.5119169167
          8
Energy: -28.893483170795776 Kcal/mole
 H     -0.1884069684    -4.5726666807    -1.9432753022
 F      0.1421723999    -3.7262447714    -1.8200834484
 H      0.5238397956    -5.4925228297     0.8221685486
 F      0.1565995991    -6.3246717821     0.7057565255
 H     -0.4119013078    -6.3932267239    -0.8622860514
 F     -0.6356706133    -6.1615302322    -1.7208505707
 H      0.8052195505    -3.6981663186    -0.2649182157
 F      1.0365381849    -3.9318208751     0.5911111282
          8
Energy: -28.916099104711492 Kcal/mole
 H     -0.1713132452    -4.5818464765    -1.9675869926
 F      0.1708305324    -3.7413683382    -1.8355902713
 H      0.4111546547    -5.4520230696     0.8597131423
 F      0.0700692908    -6.2954942653     0.7452311934
 H     -0.4645763734    -6.3816880033    -0.8473835891
 F     -0.6725053708    -6.1533530913    -1.7108172576
 H      0.7087708849    -3.6690708023    -0.2545771916
 F      0.9182153784    -3.8921359878     0.6098670965
          8
Energy: -28.91766119074012 Kcal/mole
 H     -0.1383878085    -4.6096344200    -1.9771556278
 F      0.2040331123    -3.7697734569    -1.8419873040
 H      0.4073275244    -5.4870658701     0.8934241052
 F      0.0510661968    -6.3209091639     0.7567777448
 H     -0.4736081401    -6.3944097508    -0.8406445959
 F     -0.6408865256    -6.1853423825    -1.7176838067
 H      0.7280370982    -3.6981584579    -0.2548821164
 F      0.9288110130    -3.9182097815     0.6123873055
          8
Energy: -28.920157597790848 Kcal/mole
 H     -0.1462062074    -4.6035475167    -1.9581887024
 F      0.2131850805    -3.7696400412    -1.8304185008
 H      0.4384338092    -5.5099537763     0.8626918446
 F      0.0914626041    -6.3492265746     0.7357227433
 H     -0.4377943121    -6.4144117395    -0.8498926451
 F     -0.6437401274    -6.1789979407    -1.7118994111
 H      0.7352635405    -3.7038360858    -0.2463837091
 F      0.9107459649    -3.9227165573     0.6266490841
          8
Energy: -28.924182731225244 Kcal/mole
 H     -0.1407731478    -4.6050047812    -1.9637040271
 F      0.2128968692    -3.7695627366    -1.8301259256
 H      0.4319353232    -5.5085176287     0.8705196114
 F      0.0918073337    -6.3493027590     0.7353074983
 H     -0.4529255859    -6.4115195252    -0.8456436887
 F     -0.6429374483    -6.1791513660    -1.7121248084
 H      0.7337766560    -3.6937658162    -0.2492964439
 F      0.9150458259    -3.9192768352     0.6208617419
          8
Energy: -28.928107478126265 Kcal/mole
 H     -0.1439819747    -4.6032815736    -1.9659141021
 F      0.2130670901    -3.7696541488    -1.8300086862
 H      0.4251112134    -5.5065166966     0.8749693896
 F      0.0921693370    -6.3494089038     0.7350714479
 H     -0.4467530548    -6.4063731442    -0.8456563894
 F     -0.6432648868    -6.1794243696    -1.7121241346
 H      0.7223634515    -3.6980466211    -0.2336906255
 F      0.9045640379    -3.9206899599     0.6370113270
          8
Energy: -28.929628337367802 Kcal/mole
 H     -0.1389882912    -4.6057901643    -1.9635025321
 F      0.2128021867    -3.7695210739    -1.8301366145
 H      0.4284058977    -5.5079159807     0.8755098344
 F      0.0919945616    -6.3493346750     0.7350427786
 H     -0.4444839545    -6.4085958099    -0.8467600540
 F     -0.6433852573    -6.1793064623    -1.7120655878
 H      0.7219998589    -3.6957656869    -0.2330278018
 F      0.9045833256    -3.9208109582     0.6369761658
