          8
Energy: -25.353980437028724 Kcal/mole
 H     -2.0163939203    -3.9245662617    -4.7083088255
 F     -1.5895977975    -4.2180440807    -5.4650153997
 H      0.1752954402    -1.7942572671    -5.5158541936
 F     -0.2434990069    -1.1096999150    -5.0721409498
 H     -1.4828666036    -1.6371696862    -4.0622862333
 F     -2.1117655773    -2.2732926165    -3.8604875752
 H      0.0460235385    -3.7037148336    -6.0473846435
 F      0.7644117435    -3.1358230314    -6.0954084704
          8
Energy: -26.721652684238876 Kcal/mole
 H      0.0803287219     0.3167897163    -2.7456093861
 F      0.7266320877     0.9669260372    -2.7680531736
 H     -0.0212957588     0.9381615136    -5.7522205974
 F     -0.7017396943     0.3742492481    -5.9969408608
 H     -1.1597786384    -0.2648876552    -4.5964527820
 F     -1.3518379233    -0.4352754355    -3.7161288442
 H      1.0892652230     1.4959683613    -4.2242369441
 F      1.2867520129     1.5949340266    -5.1142334412
          8
Energy: -26.948683040185443 Kcal/mole
 H      0.8515350180    -2.6025086984    -5.8736486071
 F      1.1490065691    -3.4692896755    -5.9066700259
 H     -2.3094949846    -3.0883104806    -5.6945453118
 F     -2.5226869549    -2.2201525410    -5.4902416758
 H     -1.1180357554    -1.3064476195    -5.6042096149
 F     -0.2295085049    -1.1860053954    -5.7963085365
 H     -0.2821168640    -4.4389427326    -5.9569184041
 F     -1.1950420996    -4.4311440768    -5.8709201769
          8
Energy: -27.137481842459636 Kcal/mole
 H     -1.1261213114    -5.8804686283    -0.9169077287
 F     -0.8332963289    -6.5277104170    -1.4967530500
 H      1.3535662395    -4.1865834256    -0.5859926090
 F      1.0888014833    -3.8798883357     0.2366414200
 H     -0.6177506149    -4.0068600054     0.1935942667
 F     -1.3653503347    -4.5209011027     0.0603823704
 H      0.5510432080    -5.8288841376    -1.8833278912
 F      1.2592852903    -5.2670364525    -2.0369811750
          8
Energy: -27.430761101798595 Kcal/mole
 H     -0.2970792235    -6.1828011111    -2.5905440301
 F      0.1763475491    -5.5481050960    -3.0530557158
 H      0.8830525617    -5.7884448522     0.3911433617
 F      0.1069700728    -6.1601967806     0.7079800296
 H     -0.7967632251    -6.7825225502    -0.5093036209
 F     -1.1514560413    -7.0100736346    -1.3237374795
 H      1.3094941459    -5.3638921158    -1.8711258922
 F      1.8445185550    -5.4562983082    -1.1321407927
          8
Energy: -28.027162837120073 Kcal/mole
 H      1.0220268137    -3.4005926040     1.6080385635
 F      1.5211015177    -2.9048230310     1.0197988417
 H      0.2163482780    -5.5492443711    -0.4918273734
 F     -0.0411654720    -6.1485343679     0.1527090246
 H     -0.0851452519    -5.2490229446     1.6868866963
 F      0.0559811632    -4.6132982178     2.3325076429
 H      1.1113090653    -3.4302160632    -0.5764345213
 F      0.6946502719    -3.9472164237    -1.2088861615
          8
Energy: -27.67559897789488 Kcal/mole
 H     -0.7991616612    -1.8547043720    -3.1987847015
 F      0.1176254127    -1.8627189881    -3.2168464562
 H     -1.0787007523    -1.4147465307    -0.1707010836
 F     -1.9515746889    -1.6171887609     0.0242277095
 H     -2.5119687096    -1.9223412170    -1.6254746761
 F     -2.3966260493    -1.9722874157    -2.5338195709
 H      0.4456740222    -1.4640643154    -1.7143437791
 F      0.5298811278    -1.2315366651    -0.8313210981
          8
Energy: -27.76544748705365 Kcal/mole
 H     -0.7338553022    -4.7357844537     1.4064223914
 F     -0.2182755553    -4.2265928015     1.9683746900
 H      1.2118861429    -7.0409889179     0.8708453289
 F      0.6760908075    -7.4201836310     0.2305143768
 H     -0.7949136924    -6.5735480980     0.1743789181
 F     -1.3477120982    -5.8439890113     0.2295736785
 H      1.2004921589    -5.2235651121     2.0492355620
 F      1.7255011094    -5.9715371253     2.1253438363
          8
Energy: -28.3301998270542 Kcal/mole
 H     -2.4241692656    -5.6031404734     2.5368646614
 F     -2.9868001547    -6.2347738959     2.1827817583
 H     -0.4671611912    -5.9791594410     0.3348924678
 F      0.0939060767    -5.4496653380     0.8306025805
 H     -0.5243092174    -4.8372716043     2.2452155416
 F     -1.1340079181    -4.6439251632     2.9023103962
 H     -2.4388284171    -6.8990873926     0.6540986511
 F     -1.8624301378    -6.8928539756    -0.0590739564
          8
Energy: -26.576359111706864 Kcal/mole
 H     -3.6309983337    -7.1637666930     0.8238042450
 F     -3.9596856901    -7.0994932929    -0.0298482322
 H     -1.9351534668    -4.8320401255    -0.0312955563
 F     -2.2262087786    -4.5508316972     0.7915638638
 H     -2.4501840376    -5.8968189253     2.0128542579
 F     -2.6889586696    -6.7730271800     2.1398769706
 H     -2.8210461847    -6.3515067066    -1.0415479082
 F     -2.1560743987    -5.7990048671    -1.3472327807
          8
Energy: -27.330111463792093 Kcal/mole
 H     -1.4907248582    -4.7293623238    -1.7212496418
 F     -1.3941167059    -4.1899644932    -0.9859906091
 H      1.2286929227    -6.2760873084    -0.3554524015
 F      1.1147324996    -6.9089663680    -1.0091848528
 H     -0.2465751086    -6.6957134814    -2.0225637129
 F     -0.9587274763    -6.3224713546    -2.4634926412
 H      0.0950355964    -4.4667067867    -0.1185386166
 F      0.8633563754    -4.7234174955     0.3111959438
          8
Energy: -26.84424296862997 Kcal/mole
 H      2.9513570999    -3.4810906234    -2.8273064733
 F      3.2457877832    -2.7634984361    -2.3381633189
 H      0.6326911765    -3.5226886722    -1.3238376914
 F      0.0184241939    -4.0231357477    -1.7854845247
 H      1.2073849101    -4.6902841264    -2.9725980356
 F      1.9850711225    -4.7178552881    -3.4577093488
 H      2.3999989114    -2.6240951094    -0.9675390135
 F      1.6577330819    -2.6967264112    -0.4340081968
          8
Energy: -27.218435393161286 Kcal/mole
 H     -1.7608496751    -2.4795053567    -2.2697900182
 F     -1.0895607645    -1.8583891828    -2.2028953465
 H     -1.6845602377    -2.7723532924    -5.2844602470
 F     -2.3164235716    -3.4175078009    -5.4438760162
 H     -2.9796872048    -3.3258132118    -3.8801587110
 F     -3.0030856148    -3.3901158778    -2.9657153385
 H     -0.5313066500    -1.6730909861    -3.8031009993
 F     -0.4918193964    -1.6477437843    -4.7188997087
          8
Energy: -27.882550898560453 Kcal/mole
 H     -1.0859027030    -1.6755005083    -4.7218485337
 F     -0.3497637531    -1.7877651589    -5.2569981339
 H     -1.1076329702    -4.6725910595    -4.4381556871
 F     -1.5223998458    -4.6273164437    -3.6215727776
 H     -2.1562356637    -2.9695247176    -3.4616099536
 F     -2.3782969916    -2.1214410151    -3.7305556734
 H     -0.3029393867    -3.3107043130    -5.6962586425
 F     -0.3167748990    -4.2175271296    -5.8317944602
          8
Energy: -27.159318582973867 Kcal/mole
 H     -1.2104111929    -2.5432282850    -4.7608303634
 F     -1.2750993981    -3.2066575635    -4.1310954759
 H      1.7815868342    -3.4804624282    -5.2594842068
 F      1.7838709753    -2.9385402065    -5.9992166505
 H      0.4538277348    -1.7339654593    -6.0571013642
 F     -0.2866597942    -1.3435663813    -5.6827275145
 H      0.2063257563    -4.1609427258    -3.7697728797
 F      1.0946356383    -4.3685980672    -3.8629061856
          8
Energy: -28.28948860881698 Kcal/mole
 H     -2.1061860072    -1.8094057159    -2.4604995129
 F     -2.4011746583    -2.6601399521    -2.2869427353
 H      0.8009926235    -2.3297510810    -2.5757315412
 F      0.9289832491    -1.4242036932    -2.5087141691
 H     -0.4632302054    -0.5914716706    -2.7379656328
 F     -1.3578257139    -0.4026122168    -2.8081082213
 H     -1.0118623935    -3.5895748234    -2.5703905999
 F     -0.1145690812    -3.7752296647    -2.6062513258
          8
Energy: -27.895557537188353 Kcal/mole
 H     -1.9751780305    -6.4351887469    -5.3223584098
 F     -1.9294830588    -6.7765945704    -4.4725095801
 H     -0.3580940376    -3.9269797350    -5.1889796922
 F     -0.4706446286    -3.8296706983    -6.0938290254
 H     -1.4970590144    -4.9541517390    -6.6065175248
 F     -1.9763225407    -5.7281790121    -6.7164140802
 H     -1.1159146763    -5.4712730439    -3.7344944934
 F     -0.7123774363    -4.6533561505    -3.6393175452
          8
Energy: -28.085953597127258 Kcal/mole
 H      1.3071076897    -3.2264229820    -1.8541885121
 F      2.2126501304    -3.2814591168    -1.7205737227
 H      0.9696585021    -5.6984730473    -3.6931913347
 F      0.0557279959    -5.6243135352    -3.6822187917
 H     -0.4311477602    -4.2535861396    -2.7319635776
 F     -0.3165633393    -3.4432137639    -2.3183743815
 H      2.6820571037    -4.4642032511    -2.7914999956
 F      2.6066057855    -5.0816363483    -3.4652747867
          8
Energy: -28.051709161711926 Kcal/mole
 H      1.8735709029    -2.1440432312    -2.3633189588
 F      2.7700053650    -2.2829337689    -2.4974967277
 H      2.0231340786    -3.7752211049     0.3520179619
 F      1.1519141382    -3.5413165803     0.5168011187
 H      0.6289133301    -2.6606687330    -0.7189942107
 F      0.3728714301    -2.2907805947    -1.5180651152
 H      3.4681407007    -3.2519983317    -1.2427529593
 F      3.5638831116    -3.6722312883    -0.4333540139
          8
Energy: -27.65979089890166 Kcal/mole
 H      0.9034011344    -2.4887930465    -0.8543938833
 F      1.3630660639    -1.9152369567    -0.3060960040
 H     -1.4260798830    -0.4356716043    -1.0062332530
 F     -1.8068865208    -0.7724704862    -1.7694120117
 H     -0.9706632544    -2.2994713432    -2.2284839081
 F     -0.3922827371    -2.9821901153    -2.0278348228
 H      0.4095157444    -0.5445661816     0.0865474125
 F     -0.2516231787     0.0906862455     0.0710981999
          8
Energy: -27.607658994099836 Kcal/mole
 H     -3.9589709823    -0.6740510430    -4.0103502662
 F     -3.7234050999     0.1419203594    -4.3561658030
 H     -5.0339951620     0.4692080356    -1.4862393078
 F     -5.1837354945    -0.3751328392    -1.1613465255
 H     -4.7935191907    -1.3637270788    -2.2989106842
 F     -4.4400980833    -1.8399247032    -2.9983521352
 H     -4.2217532765     1.3715987585    -3.2485308207
 F     -4.5253042213     1.8413988634    -2.5218715571
          8
Energy: -27.5358340255477 Kcal/mole
 H     -5.0760462603     2.0235182838    -0.1000418770
 F     -5.8328333149     1.9063609882     0.4043751350
 H     -5.2411614694    -0.6570016807    -1.9470397418
 F     -4.4276156042    -0.5603690953    -2.3589793838
 H     -4.0129048209     0.8427087951    -1.7469509899
 F     -3.7739895959     1.5957310604    -1.2813696508
 H     -6.4993065636     0.4808409639    -0.2530368187
 F     -6.4884897159    -0.2741697355    -0.7733548364
          8
Energy: -28.07059337966743 Kcal/mole
 H     -6.8898747307    -0.6721334586     1.6960116588
 F     -6.4154717911    -0.6823382556     2.4806942143
 H     -4.5680525788    -1.4011210600     0.3434465053
 F     -5.0677535376    -1.6400656256    -0.3873704666
 H     -6.7769695689    -1.1906993389    -0.3550825682
 F     -7.4936770481    -0.8696808859     0.1183797240
 H     -4.8090833760    -0.7218041867     2.1723425944
 F     -4.0086779433    -0.8194453340     1.7356432130
          8
Energy: -28.04542273603377 Kcal/mole
 H     -5.2624851163    -1.6558235751     5.2532593398
 F     -5.1576874895    -1.0330682925     5.9181520495
 H     -5.0772699609     0.3437198575     3.1036424158
 F     -5.0255646147    -0.2141559948     2.3777015845
 H     -4.9731922484    -1.8267013776     3.1193608539
 F     -5.0446736243    -2.4150056265     3.8191304758
 H     -5.1038403126     0.4043058298     5.1911329771
 F     -5.1025657672     1.0848571262     4.5765296021
          8
Energy: -27.34913404863167 Kcal/mole
 H     -6.2890908526    -3.1888382754     4.6809143053
 F     -7.2003145541    -3.2073966298     4.5798403060
 H     -5.7751961910    -0.9884978971     6.9168527923
 F     -4.8615885796    -0.9403851240     6.8544405060
 H     -4.5642212959    -2.2123251789     5.6729487925
 F     -4.6824535164    -2.9913014691     5.2037941471
 H     -7.4617696192    -2.2422131498     5.8523048982
 F     -7.3989402595    -1.7562478206     6.6274043566
          8
Energy: -28.258633511591285 Kcal/mole
 H     -3.7643894980    -2.5009849295     4.4375748640
 F     -3.4967548924    -3.3477928656     4.2091519289
 H     -1.6014849355    -2.2726101099     6.4229966893
 F     -1.6741123729    -1.3717611452     6.5781914001
 H     -3.1833914809    -1.0106204111     5.7638064465
 F     -3.8910519678    -1.0593544676     5.1826604864
 H     -2.4584568148    -3.8818633039     5.3837739623
 F     -1.8757152585    -3.8968087712     6.0916425317
          8
Energy: -28.390927691553912 Kcal/mole
 H     -5.7765132382    -3.8645196186     3.7571909156
 F     -5.6979347384    -4.6742325153     3.3340131229
 H     -2.8986436561    -4.0489231326     4.9627532354
 F     -2.7647651010    -3.1426928692     5.0041324849
 H     -4.3461481129    -2.5646315431     4.8961858517
 F     -5.2497010778    -2.5296056767     4.7436924802
 H     -4.3279135240    -5.4468969514     4.0705520838
 F     -3.5852418945    -5.5584601952     4.5967473834
          8
Energy: -28.312889374543744 Kcal/mole
 H     -2.8168780197    -3.4717926182     5.0989699537
 F     -3.7262947497    -3.4652620651     4.9814643664
 H     -2.0962920449    -5.2565930538     2.5671521910
 F     -1.2052566418    -5.3507819368     2.7622761636
 H     -1.0595946466    -4.3908704985     4.1963490836
 F     -1.2137030118    -3.9451756352     4.9827940599
 H     -3.9269962953    -4.3516191632     3.5515495225
 F     -3.7403436888    -4.7502062801     2.7470757101
          8
Energy: -27.931107676605222 Kcal/mole
 H     -2.9627959220    -2.8873748020     6.2068008077
 F     -3.3815452431    -2.3546666587     6.8246681398
 H     -4.9619062759    -2.6679794591     3.9060621457
 F     -4.4696615642    -3.2142207793     3.3581528796
 H     -3.1352691341    -3.8099273983     4.2165919858
 F     -2.6058765605    -3.8885744559     4.9612040616
 H     -4.7028246945    -1.6053261706     5.8932414623
 F     -5.3282653560    -1.5828048311     5.2230133160
          8
Energy: -28.42844277010323 Kcal/mole
 H     -2.9120640952    -3.4883135249     2.6440244338
 F     -2.6062806926    -2.6700454028     2.9229917994
 H     -4.2094153197    -4.1561091567     5.1937959777
 F     -4.3684614855    -5.0408457728     5.0125932261
 H     -3.8540096517    -5.2190395410     3.4012877951
 F     -3.6118972280    -4.9664074237     2.5536749190
 H     -3.2048317942    -2.3596128110     4.4744157074
 F     -3.7153405875    -2.5348002537     5.2157517526
          8
Energy: -28.179764955247947 Kcal/mole
 H     -3.3272773651    -3.4476161859     6.4466153345
 F     -4.2395608208    -3.4719155965     6.5362670782
 H     -3.2354902376    -6.3282548678     5.9215024496
 F     -2.3464145718    -6.4111792607     5.7127992979
 H     -1.6561728883    -4.8502472932     6.0873340396
 F     -1.6729060720    -3.9421544176     6.2137315474
 H     -4.7290261779    -5.0528556776     6.4804093303
 F     -4.6825604619    -5.9683145760     6.4546228501
          8
Energy: -28.397719329512057 Kcal/mole
 H     -5.3024481686    -4.0119369608     7.1812196063
 F     -6.1657300598    -3.9731962466     7.4880298627
 H     -5.7064745213    -6.6808612246     5.9461044579
 F     -4.8341980914    -6.7257442399     5.6668047178
 H     -3.9441502666    -5.3634425551     6.1093421961
 F     -3.8358603344    -4.5230840015     6.4599984265
 H     -6.8762203387    -5.3896756971     7.1966529323
 F     -7.0624124284    -6.2202129135     6.8554353507
          8
Energy: -28.076423085069848 Kcal/mole
 H     -5.6554711205    -3.1741096612     5.4331480200
 F     -5.9363722197    -3.1057164829     4.5629147492
 H     -4.3749883651    -6.0542187618     5.0044980705
 F     -3.9095339983    -6.0449540282     5.7945331312
 H     -4.6004401916    -4.7551534468     6.6437446557
 F     -5.1232172697    -4.0151641767     6.7851978518
 H     -5.4938856559    -4.5500732925     3.9259233812
 F     -5.2555823989    -5.4146214045     3.7344628897
          8
Energy: -28.04378386999724 Kcal/mole
 H     -2.5271961831    -2.9056236700     3.2829589561
 F     -2.9776614957    -3.2106824606     2.5447793462
 H     -3.7215119976    -5.1795964771     4.9422163021
 F     -3.4625316891    -4.7935151447     5.7326335366
 H     -2.7195558611    -3.3519333505     5.4367858453
 F     -2.3425539145    -2.6223127815     5.0288491374
 H     -3.6455764966    -4.6345911097     2.9292295020
 F     -4.0070121837    -5.4064504473     3.2675879023
          8
Energy: -27.499065822153113 Kcal/mole
 H     -4.0758912878    -3.2916777463     4.2354165343
 F     -4.9052608579    -3.2470547899     3.8467728569
 H     -3.9344788540    -6.1174694389     4.6113425942
 F     -3.2122677660    -6.1051753173     5.1762753327
 H     -2.5171880040    -4.5551637591     5.0440611835
 F     -2.5364965844    -3.6574165967     4.8581412785
 H     -5.3279293727    -4.8489926552     3.8216923954
 F     -5.3716003470    -5.7600031463     3.7266043775
          8
Energy: -28.69511203566975 Kcal/mole
 H     -4.3800725250    -4.6868644585     1.8400704229
 F     -5.1929792631    -4.2882994010     1.6944080391
 H     -3.9816507570    -3.0652873272     4.3505678685
 F     -3.2110041109    -3.4996937310     4.5919882969
 H     -2.8724189570    -4.6022823220     3.3797704755
 F     -2.9303578842    -5.0333330336     2.5724741452
 H     -5.4011838554    -3.0568723648     2.8360110132
 F     -5.3098093492    -2.5373866407     3.5861271923
          8
Energy: -28.40778259489545 Kcal/mole
 H     -1.2841694624    -3.5230723945     1.1918390828
 F     -1.8602557994    -2.9879295692     0.7199962182
 H     -3.4638404686    -4.3434221550     2.9122853804
 F     -3.0069951702    -5.0503768305     3.2761486240
 H     -1.3771288189    -4.8915476438     2.7915001586
 F     -0.6604569586    -4.6121162804     2.2923122603
 H     -3.3269980413    -2.8004159008     1.5918600052
 F     -4.0329129126    -3.0465875059     2.1228710554
          8
Energy: -28.328618892072996 Kcal/mole
 H     -1.8302068169    -2.0349416355     1.2827787594
 F     -2.3167092412    -1.2589924001     1.3286827389
 H     -4.3370946567    -3.4312837476     1.9146590860
 F     -3.8525865634    -4.1363322501     2.2448825204
 H     -2.2543318717    -3.9875445707     1.7907293166
 F     -1.4421318288    -3.6599667067     1.5188601689
 H     -3.9744956329    -1.5739050931     1.1642632862
 F     -4.7509045286    -2.0613244538     1.1866372327
          8
Energy: -28.522749538564824 Kcal/mole
 H     -4.0520643615    -1.8216570313     3.0566729675
 F     -4.5276154301    -1.1973484734     2.5823534490
 H     -2.4312851311    -2.3135692924     0.3999163917
 F     -1.8879747592    -2.9404437330     0.7907248811
 H     -2.3200997276    -3.0282672746     2.4867739411
 F     -2.7472009822    -2.9175939971     3.2906551164
 H     -4.0028523955    -1.0430170369     0.9779025663
 F     -3.6085097952    -1.1646165790     0.1590030213
          8
Energy: -28.15914587546115 Kcal/mole
 H     -1.4430014140    -2.7532055706     2.4958485283
 F     -0.8491700285    -2.6071183118     1.8125390828
 H     -3.5673337364    -4.1498943362     0.9268988918
 F     -4.0402812128    -4.3890948519     1.6752255569
 H     -3.3710123222    -3.6254157435     3.0530040249
 F     -2.7145662214    -3.1742619138     3.5073472198
 H     -1.6356774373    -3.1665864376     0.4312097080
 F     -2.2985370086    -3.4293374304    -0.1453907642
          8
Energy: -28.412815553743457 Kcal/mole
 H     -1.3248746457    -1.9897522593     1.0800108592
 F     -1.6381052368    -1.3189838597     0.5388589850
 H     -1.6171908917    -4.2669981406    -1.1173573515
 F     -1.2134997907    -4.8610250192    -0.5472217865
 H     -0.9029853846    -4.0717033747     0.9689853634
 F     -0.8603829080    -3.4802739717     1.6684746701
 H     -2.0012345928    -2.0882194991    -0.8433181745
 F     -2.1811351634    -2.6975880674    -1.5045252015
          8
Energy: -28.426803739030532 Kcal/mole
 H     -0.7117615722    -2.9786521783     1.2254032515
 F     -0.7216742862    -2.2151301776     0.7176386481
 H     -3.5052478268    -3.3845128316     0.7882922803
 F     -3.5111007511    -3.9452335794     1.5138589459
 H     -1.9749879696    -4.4087682604     1.9305715521
 F     -1.0588643985    -4.3964736718     1.9687218543
 H     -2.1473224016    -2.2309625063    -0.2357919781
 F     -3.0262406260    -2.3889547881    -0.4441910991
          8
Energy: -28.41093371470754 Kcal/mole
 H     -1.9973097996    -1.7225149836     1.9860202166
 F     -1.1531010447    -1.7829954757     1.6331141550
 H     -3.0823194136    -3.8650261138     0.1308366340
 F     -3.9475388197    -3.7104765474     0.3923682974
 H     -3.9431517355    -2.6760691604     1.6975551338
 F     -3.6727727306    -2.0691755443     2.3295870415
 H     -1.0299428029    -3.1467319009     0.5317339368
 F     -1.3370523270    -3.8885006916     0.0886179235
          8
Energy: -28.549628717514082 Kcal/mole
 H     -2.6144301634    -1.3863799801     2.1819146056
 F     -1.7378827441    -1.2014306648     1.9860897543
 H     -2.4316789908    -4.3677498651     1.7259157863
 F     -3.2422140033    -4.5553869839     2.1115507241
 H     -3.9976216205    -3.0479921407     2.3862254995
 F     -4.1084677634    -2.1378489841     2.4017679294
 H     -1.0825704812    -2.6436902908     1.3129242254
 F     -1.1256500443    -3.5195405414     1.0447461322
          8
Energy: -28.47248586983136 Kcal/mole
 H     -1.6562731962    -2.2182736693     3.3189954003
 F     -1.4244987857    -1.7281508291     2.5794352444
 H     -4.1199564596    -3.1125998924     2.1013873419
 F     -4.4210248266    -3.6558536226     2.7760148118
 H     -3.2810399647    -3.4628398360     3.9566822021
 F     -2.5392674279    -3.1664992888     4.4070651322
 H     -2.6793503272    -1.8608767662     1.4633800243
 F     -3.4352072297    -2.1135447767     1.0098072964
          8
Energy: -28.615081364201444 Kcal/mole
 H     -1.0797449531    -2.2148896974     3.4027183196
 F     -0.7465746278    -2.2103456608     2.5483964329
 H     -3.1518394172    -4.4142713865     2.9486889359
 F     -3.2964798915    -4.5897291956     3.8370484861
 H     -2.5634934308    -3.3178694710     4.5594659866
 F     -2.1074891494    -2.5347171067     4.6995426427
 H     -1.8307239270    -3.1909064745     1.7191886648
 F     -2.5055258292    -3.7781060488     1.5173767409
          8
Energy: -28.72828633270521 Kcal/mole
 H     -1.3402772511    -3.4348567731     4.0248911440
 F     -0.8984299563    -3.5952267822     3.2375275506
 H     -3.9740108836    -4.6532488988     3.1206511120
 F     -4.3185967026    -4.5941502822     3.9683874902
 H     -3.2454516547    -3.7709347098     4.9582092234
 F     -2.4806039119    -3.3530656707     5.2433099013
 H     -2.0885774174    -4.1104213946     2.2242292235
 F     -2.8702898779    -4.3865307714     1.8323386251
          8
Energy: -28.810305791065844 Kcal/mole
 H     -1.5515952865    -4.0538830241     4.1340703652
 F     -1.1710904208    -4.3663584857     3.3604657290
 H     -4.3782479392    -3.9597189490     2.9482114166
 F     -4.7279794631    -3.5422788604     3.6859923012
 H     -3.4826455558    -3.3645028585     4.7861789889
 F     -2.6541342855    -3.3628565427     5.1791870863
 H     -2.4336631800    -4.6206826808     2.2987446151
 F     -3.2592874380    -4.6875070600     1.9053388616
          8
Energy: -28.83793756817792 Kcal/mole
 H     -1.5775502048    -4.3402099847     4.0337476851
 F     -1.3445538734    -4.7231832324     3.2337894355
 H     -3.9992980299    -3.1631025612     2.8381030628
 F     -4.2953395256    -2.8365892869     3.6422408088
 H     -3.1506933566    -3.2083986504     4.8239607159
 F     -2.3886751005    -3.5178404434     5.2295010397
 H     -2.4431717555    -4.3298034195     2.0359877644
 F     -3.1597814653    -3.9288725861     1.6278039938
          8
Energy: -28.82724252239848 Kcal/mole
 H     -1.5913756654    -4.8412263994     4.0747362023
 F     -1.4376953756    -5.2559393327     3.2714401476
 H     -3.9870901098    -3.1950512921     2.9940326963
 F     -4.1788674958    -2.7953706560     3.7967566983
 H     -2.9888165283    -3.3556872202     4.8351805295
 F     -2.2739277597    -3.7902834433     5.2106125092
 H     -2.5393121978    -4.6284749819     2.1820923992
 F     -3.2192670202    -4.1198824971     1.8358495310
          8
Energy: -28.842803135053174 Kcal/mole
 H     -1.6641075601    -4.8366637096     3.9076008643
 F     -1.3276076888    -5.0624272463     3.0849905908
 H     -3.8056794572    -3.0199673721     2.7224733206
 F     -4.1044469490    -2.7378515145     3.5422523328
 H     -3.2284306323    -3.6151176791     4.6958323898
 F     -2.6077864012    -4.1556714090     5.1001730920
 H     -2.3485001778    -4.3907696659     1.9156873972
 F     -3.0160471876    -3.8984755604     1.5246419992
          8
Energy: -28.756167515023606 Kcal/mole
 H     -1.7269932047    -5.0550220175     3.9407751383
 F     -1.3055861352    -5.1854339277     3.1368486395
 H     -3.8240235757    -3.2427552579     2.6571913655
 F     -4.2282525811    -3.0950348462     3.4669237850
 H     -3.4163251724    -3.9217085575     4.6775939257
 F     -2.7790979437    -4.4297584111     5.0979697162
 H     -2.1520448689    -4.4171677607     1.8977643750
 F     -2.7678289833    -3.9072029712     1.4487266953
          8
Energy: -28.892713856119997 Kcal/mole
 H     -1.8676886262    -5.1772357965     3.9976108053
 F     -1.5170394983    -5.4373837620     3.1912255219
 H     -3.7658859208    -3.1656966243     2.6522326143
 F     -4.1044194460    -2.9065030648     3.4640840483
 H     -3.3588994380    -3.7872434625     4.6663348417
 F     -2.8247825626    -4.3748951119     5.1248909477
 H     -2.2466847165    -4.5396758325     1.9748852301
 F     -2.7812158134    -3.9518929291     1.5169804750
          8
Energy: -28.874681593226114 Kcal/mole
 H     -1.8326229148    -5.1575693655     3.9942695899
 F     -1.5077208528    -5.4393091435     3.1843619732
 H     -3.7574478047    -3.1784796253     2.6793040598
 F     -4.1225301023    -2.9417219967     3.4864903713
 H     -3.2863131041    -3.7706604718     4.6860608913
 F     -2.6926301680    -4.2946125657     5.1485582154
 H     -2.2800324941    -4.5653751009     1.9752895055
 F     -2.8302762917    -3.9791590263     1.5343003026
          8
Energy: -28.927520756787345 Kcal/mole
 H     -1.8304187152    -5.1426374751     3.9770527094
 F     -1.5037108580    -5.4330330434     3.1709377114
 H     -3.7658770628    -3.2051696599     2.6838445674
 F     -4.1220829496    -2.9403061520     3.4862495078
 H     -3.2963723963    -3.7561109389     4.7021653769
 F     -2.7142817773    -4.3141700775     5.1387767706
 H     -2.2766505100    -4.5648487735     1.9717402690
 F     -2.8304556982    -3.9791869468     1.5344885814
