          8
Energy: -28.930506525398783 Kcal/mole
 H      1.1318683692    -5.4886129887    -2.9982882651
 F      1.9825757216    -5.8309120833    -3.0024512603
 H      0.6822452386    -6.1563720304    -0.0808002504
 F     -0.1711781980    -5.8208822478    -0.0828111390
 H     -0.4806692767    -5.2417460317    -1.6192973706
 F     -0.3908258535    -5.0167550602    -2.5037159491
 H      2.3060916934    -6.3988570227    -1.4577614626
 F      2.2182379937    -6.6164692225    -0.5712990224
