          8
Energy: -28.927520756787345 Kcal/mole
 H     -1.8304187152    -5.1426374751     3.9770527094
 F     -1.5037108580    -5.4330330434     3.1709377114
 H     -3.7658770628    -3.2051696599     2.6838445674
 F     -4.1220829496    -2.9403061520     3.4862495078
 H     -3.2963723963    -3.7561109389     4.7021653769
 F     -2.7142817773    -4.3141700775     5.1387767706
 H     -2.2766505100    -4.5648487735     1.9717402690
 F     -2.8304556982    -3.9791869468     1.5344885814
