          8
Energy: -28.929628337367802 Kcal/mole
 H     -0.1389882912    -4.6057901643    -1.9635025321
 F      0.2128021867    -3.7695210739    -1.8301366145
 H      0.4284058977    -5.5079159807     0.8755098344
 F      0.0919945616    -6.3493346750     0.7350427786
 H     -0.4444839545    -6.4085958099    -0.8467600540
 F     -0.6433852573    -6.1793064623    -1.7120655878
 H      0.7219998589    -3.6957656869    -0.2330278018
 F      0.9045833256    -3.9208109582     0.6369761658
