          8
Energy: -28.928832244692586 Kcal/mole
 H      2.1688360334    -5.0934510781    -1.2976070490
 F      2.1907637635    -4.2721415494    -1.7048647472
 H      0.1306448711    -4.1981559894     0.7388425680
 F      0.1185149588    -5.0176759938     1.1500953219
 H      1.1746991230    -6.0296916618     0.3378271957
 F      1.7899533170    -6.3507831500    -0.2615487573
 H      1.1184224021    -3.2574472575    -0.9059698068
 F      0.4956501268    -2.9396926541    -0.3126101308
