          8
Energy: -28.931544918100656 Kcal/mole
 H      2.3706364117    -4.7321290333    -1.2733893920
 F      1.8126649102    -4.5648398383    -1.9816062576
 H      0.2653315737    -4.0267257573     0.7827382089
 F      0.8250553956    -4.1887140614     1.4908046130
 H      2.2996086794    -4.6733938195     0.8650472282
 F      2.9690620685    -4.8993097656     0.2805105354
 H      0.3371283115    -4.0903242415    -1.3554163326
 F     -0.3343807350    -3.8695252545    -0.7712824372
