          8
Energy: -28.931009970144657 Kcal/mole
 H      2.3124213277    -5.0512800606    -1.2157316241
 F      1.7642958039    -4.8936174760    -1.9337775277
 H      0.2078627290    -4.2104665946     0.7804391940
 F      0.7609427285    -4.3561806309     1.4972089853
 H      2.2290617476    -4.9114696804     0.9100694621
 F      2.8972127658    -5.1815003633     0.3430186292
 H      0.2897366626    -4.3623458125    -1.3481667458
 F     -0.3835467139    -4.1041620482    -0.7816690505
