          4
Energy: -1.0870905427309776 Kcal/mole
 Xe     3.8165637827    -4.7828536783     4.9827907319
 Xe     2.6829133489    -0.2774917334     6.0570816073
 Xe     7.1432716137     2.9398000013    -1.6398304573
 Xe     5.3571213625    -0.3660669288     1.1163192766
          4
Energy: -0.6427246567594892 Kcal/mole
 Xe     3.2193723894    -0.5038491413    -0.7231357152
 Xe    -7.3550907599     1.3224192762    -5.9995956490
 Xe     0.6747108277     2.1936812793    -2.6716122313
 Xe    -1.9594329015     3.7200139527    -7.7513134143
          4
Energy: -0.4040289072106936 Kcal/mole
 Xe    -2.7844231172     7.9485866787     7.8496865457
 Xe    -2.1120763115     2.8210547221    -2.5349743889
 Xe     1.2917900067     4.9214725516    -6.7409446890
 Xe    -6.7124103688     4.3605006360    -0.3400791609
          4
Energy: -1.80041172483445 Kcal/mole
 Xe    -0.9901090347    -2.4324266422    -0.2991311707
 Xe    -2.2724815527     2.1843045060    -2.3860390951
 Xe     2.3873128706     0.4574062330    -1.3376132758
 Xe     1.0816238582    -0.2155973227    -5.4980073957
          4
Energy: -1.16412623603749 Kcal/mole
 Xe    -0.6040176572     4.0480090283    -4.8804720426
 Xe    -3.7476352002     6.3986282816     4.7107800518
 Xe    -0.9937979013     8.0633592410    -3.1960256357
 Xe    -4.7039443800     7.6004315835     0.1644217927
          4
Energy: -0.8522946720117809 Kcal/mole
 Xe     5.0577715749     1.2132469742     0.8671631527
 Xe     1.2852813294     6.3581540843     4.3082064670
 Xe    -0.5185144377     2.8640628772     0.7190735829
 Xe    -1.7036458468     3.3796493296    -3.2929042267
          4
Energy: -1.9078792197708039 Kcal/mole
 Xe     5.3816378544     1.8302239143     1.6258604517
 Xe     5.3194108785     5.8705758770     3.1032919546
 Xe     1.5338199249     7.9364484210     3.6856936242
 Xe     1.9267013088     3.2289153562     5.0405235710
          4
Energy: -2.027053574476179 Kcal/mole
 Xe     0.6483589357     3.3659459892    -7.1406200507
 Xe     1.1636910114     5.4245921893    -3.5279213101
 Xe     5.0873098110     7.3876760794    -3.4604075771
 Xe     2.3674290804     8.0912136358    -6.8616233733
          4
Energy: -2.4777701805609387 Kcal/mole
 Xe     4.4707092483     6.1880379394    -3.4428318892
 Xe     8.0324148774     4.0830667875    -4.6501207445
 Xe     3.6964135495     3.2675298736    -6.5147023431
 Xe     6.0981056072     7.1014383869    -7.3195392379
          4
Energy: -2.5978532121335 Kcal/mole
 Xe     4.5063892371     6.0961743699    -3.3804913081
 Xe     8.2337168797     4.2665780237    -4.8945034490
 Xe     4.3275353747     2.7486352022    -6.2661387334
 Xe     5.7416012114     6.7301123362    -7.5716313270
