          4
Energy: -6.326860006544337 Kcal/mole
 H      0.2005501674    -5.8667301669     4.1773230547
 F      0.7020300002    -5.7654354444     3.4163063949
 H      1.6956153694    -4.3887428628     3.3832492605
 F      2.1559173750    -3.6079436357     3.5224025231
          4
Energy: -6.327192284792773 Kcal/mole
 H      0.3864064895    -5.9615153785     4.2654586592
 F      0.6779060863    -5.7444111611     3.4235663004
 H      1.6519573281    -4.3527304518     3.3624129729
 F      2.1503361621    -3.6000480607     3.5235860351
          4
Energy: -6.327849447264839 Kcal/mole
 H      1.0302964584    -6.4236685704     3.9198956149
 F      0.6396532798    -5.7239198024     3.4742067452
 H      1.5449529764    -4.2910749960     3.4389269213
 F      2.1575789233    -3.6129776746     3.5148378680
          4
Energy: -6.327985952710321 Kcal/mole
 H      0.9876068432    -6.3807850491     4.0479135166
 F      0.6836823828    -5.7555928617     3.4498720036
 H      1.5807901953    -4.3177075937     3.4037083643
 F      2.1695632874    -3.6228548588     3.5105490068
          4
Energy: -6.326704256337223 Kcal/mole
 H      1.1744903320    -6.4788287041     3.5235200646
 F      0.6555943320    -5.7257128439     3.4567934403
 H      1.5359863309    -4.2796517838     3.4923189314
 F      2.1603052697    -3.6095895684     3.5384869957
          4
Energy: -6.3268085126048845 Kcal/mole
 H      1.0544793447    -6.4250014634     3.8695534723
 F      0.6476259532    -5.7215620661     3.4446625072
 H      1.5523895782    -4.2898129522     3.4463363275
 F      2.1594351153    -3.6090505419     3.5409262666
          4
Energy: -6.327304349858878 Kcal/mole
 H      1.1561726146    -6.4794036965     3.4559213720
 F      0.6441484134    -5.7186811354     3.4605476416
 H      1.5270243803    -4.2745057291     3.5074612415
 F      2.1602518336    -3.6118333103     3.5353405853
          4
Energy: -6.327165484302043 Kcal/mole
 H      1.0654309065    -6.4425253616     3.1166848822
 F      0.6463954074    -5.7274722408     3.5091097604
 H      1.5463590867    -4.2969935629     3.5721539826
 F      2.1612026989    -3.6184526889     3.5227716494
          4
Energy: -6.327422136611688 Kcal/mole
 H      0.9486033537    -6.3816581614     2.9505954926
 F      0.6457036761    -5.7273219936     3.5171508428
 H      1.5802072022    -4.3096244636     3.5747796931
 F      2.1889566710    -3.6297380342     3.4849602773
          4
Energy: -6.327100109283094 Kcal/mole
 H      0.6765775788    -6.1613063078     2.7157971550
 F      0.6601340149    -5.7390111502     3.5296063520
 H      1.6237194286    -4.3398786185     3.6148147878
 F      2.1866484479    -3.6281331212     3.4828365081
          4
Energy: -6.327874050365608 Kcal/mole
 H      0.4779816072    -6.0241756595     2.6867959386
 F      0.6611848619    -5.7374206601     3.5383222963
 H      1.6618308327    -4.3716895274     3.6209248160
 F      2.2034170182    -3.6458197393     3.4770969529
          4
Energy: -6.327467537713801 Kcal/mole
 H      0.4679037795    -6.0359059926     2.6908957058
 F      0.6526177172    -5.7303073056     3.5355134914
 H      1.6664872602    -4.3753350082     3.6209215783
 F      2.2192268534    -3.6558312106     3.4879470419
          4
Energy: -6.327461674110452 Kcal/mole
 H      0.3354174323    -5.9234416726     2.6976275003
 F      0.6794614528    -5.7477888348     3.5292937750
 H      1.6938907977    -4.3898937002     3.6294954786
 F      2.2067216239    -3.6390872624     3.5104020847
          4
Energy: -6.326931809026291 Kcal/mole
 H      0.5178689102    -6.0852789646     2.7143949145
 F      0.6625540866    -5.7398712461     3.5514425283
 H      1.6229195514    -4.3406772115     3.6270930773
 F      2.1518220335    -3.6036341535     3.4932323475
          4
Energy: -6.326931183346801 Kcal/mole
 H      0.4761841433    -6.0480911789     2.7129941825
 F      0.6869575604    -5.7515681164     3.5547409616
 H      1.6489706629    -4.3613772072     3.6327017009
 F      2.1657154128    -3.6159623057     3.4977184129
          4
Energy: -6.326751197606541 Kcal/mole
 H      0.6144307193    -6.1495657809     2.7292817638
 F      0.6566703153    -5.7410841151     3.5491887983
 H      1.6182833478    -4.3390130737     3.6331001880
 F      2.1673433040    -3.6171486713     3.4976972741
          4
Energy: -6.327233338292558 Kcal/mole
 H      0.4456307015    -6.0268556848     2.7085949553
 F      0.6908519486    -5.7595476601     3.5507956202
 H      1.6518145807    -4.3630275467     3.6239838294
 F      2.1543779830    -3.6077985969     3.4900127129
          4
Energy: -6.327809885010993 Kcal/mole
 H      0.4071042378    -5.9880973998     2.7331790767
 F      0.7245126993    -5.7779848769     3.5674413834
 H      1.6797114621    -4.3763843031     3.6478524303
 F      2.1641099924    -3.6099647404     3.5105639828
          4
Energy: -6.327657511831433 Kcal/mole
 H      0.3336800595    -5.9355003956     2.7532709128
 F      0.7284076823    -5.7807750264     3.5663755579
 H      1.6990448282    -4.3895197071     3.6493575411
 F      2.1774919833    -3.6189483986     3.5144606239
          4
Energy: -6.327926983416489 Kcal/mole
 H      0.0210052652    -5.7206457633     3.0095661223
 F      0.7379544019    -5.7850116062     3.5776594013
 H      1.7474445368    -4.4218721713     3.6195060788
 F      2.1749244906    -3.6172321751     3.5160441750
          4
Energy: -6.326883219083129 Kcal/mole
 H     -0.0200191429    -5.6880983751     3.0710759901
 F      0.7401306519    -5.7867381700     3.5743964449
 H      1.7484640662    -4.4276190328     3.5981531642
 F      2.1677764312    -3.6167001446     3.5116852674
          4
Energy: -6.327727787778315 Kcal/mole
 H     -0.1365650274    -5.6129336075     3.3567500389
 F      0.7397334692    -5.7896706644     3.5610878907
 H      1.7631272537    -4.4382846805     3.5568395654
 F      2.1669985830    -3.6161343566     3.5138768584
          4
Energy: -6.327880032114592 Kcal/mole
 H     -0.0373883374    -5.6783601239     3.0919274509
 F      0.7344723749    -5.7861999389     3.5751361171
 H      1.7582482685    -4.4363084882     3.6119546409
 F      2.1833943497    -3.6283078913     3.5266619378
          4
Energy: -6.327531666791401 Kcal/mole
 H     -0.1480530439    -5.6099060361     3.4518044673
 F      0.7427344077    -5.7949641297     3.5664352580
 H      1.7711957273    -4.4486774853     3.5484411957
 F      2.1731047416    -3.6249534911     3.5195115318
          4
Energy: -6.327888178925889 Kcal/mole
 H     -0.1083125507    -5.6394646409     3.2863608068
 F      0.7487182043    -5.8053296175     3.5672096889
 H      1.7735336939    -4.4534203249     3.5720504011
 F      2.1804978869    -3.6337914136     3.5130792777
          4
Energy: -6.32617186736735 Kcal/mole
 H     -0.1402617712    -5.6193282549     3.4189021684
 F      0.7422568827    -5.8041433984     3.5859147079
 H      1.7785870748    -4.4610781360     3.5825437702
 F      2.1941939938    -3.6453480240     3.5301579584
          4
Energy: -6.3274153020745985 Kcal/mole
 H     -0.0877651325    -5.6452693544     3.2276658076
 F      0.7318538636    -5.7940663580     3.6110365851
 H      1.7741853485    -4.4581126867     3.6079520653
 F      2.1902849143    -3.6451620571     3.5251183451
          4
Energy: -6.327502276835105 Kcal/mole
 H      0.0732550955    -5.7574118757     2.9807615699
 F      0.7273648476    -5.7899038638     3.6226133464
 H      1.7508443046    -4.4402252133     3.6496866288
 F      2.1915231027    -3.6461109462     3.5229044230
          4
Energy: -6.327558582763629 Kcal/mole
 H      0.0518808209    -5.7517963446     3.0283179636
 F      0.7392376438    -5.8008729802     3.6333147255
 H      1.7532463651    -4.4392713244     3.6562120353
 F      2.1793874471    -3.6368094607     3.5323260572
          4
Energy: -6.32764427088739 Kcal/mole
 H      0.0393430824    -5.7602982484     3.0356173922
 F      0.7278061584    -5.7946266957     3.6403728393
 H      1.7491985779    -4.4421957548     3.6552164448
 F      2.1884415969    -3.6462891612     3.5348533922
          4
Energy: -6.327810148686467 Kcal/mole
 H      0.0072528293    -5.7357536567     3.0787648722
 F      0.7342738696    -5.8031974364     3.6335447776
 H      1.7555637799    -4.4466201226     3.6487425347
 F      2.1881039376    -3.6460544587     3.5351968181
          4
Energy: -6.326744043929921 Kcal/mole
 H      0.1230879121    -5.8009599781     2.9512429870
 F      0.7281290861    -5.7997383918     3.6403095190
 H      1.7245013917    -4.4311634259     3.6669199467
 F      2.1597427667    -3.6354466041     3.5316842821
          4
Energy: -6.32723089104644 Kcal/mole
 H      0.0885008675    -5.8198850166     2.9965142885
 F      0.7111310102    -5.7841786148     3.6687834000
 H      1.7369619992    -4.4286339338     3.6418532067
 F      2.1978254374    -3.6540919889     3.4728009461
          4
Energy: -6.327518010177698 Kcal/mole
 H      0.0161209282    -5.7523921792     3.0721118952
 F      0.7149705987    -5.7877589538     3.6647731217
 H      1.7559522214    -4.4525278336     3.6232932700
 F      2.2111527715    -3.6727169584     3.4633668553
          4
Energy: -6.3277444937616565 Kcal/mole
 H      0.0459812898    -5.7626175735     3.0368179151
 F      0.7168875170    -5.7871588007     3.6614550597
 H      1.7706465936    -4.4619848332     3.6163969261
 F      2.2333550584    -3.6867281144     3.4558762216
          4
Energy: -6.327434853904663 Kcal/mole
 H     -0.0381793276    -5.7077789606     3.1483599068
 F      0.7213520433    -5.7900678624     3.6555380148
 H      1.7797236624    -4.4702769380     3.6012675445
 F      2.2328735409    -3.6862882374     3.4566788003
          4
Energy: -6.327645123335913 Kcal/mole
 H      0.0642698545    -5.7947018784     3.0099661798
 F      0.7058486252    -5.7763166413     3.6648918734
 H      1.7594040679    -4.4495329160     3.6203741271
 F      2.2332078788    -3.6824084026     3.4532845414
          4
Energy: -6.327884967688021 Kcal/mole
 H      0.0505135032    -5.7797337891     3.0138943876
 F      0.7020299128    -5.7871404087     3.6591544206
 H      1.7622907127    -4.4637529009     3.6131189138
 F      2.2280525596    -3.6925966770     3.4420254296
          4
Energy: -6.327917809134988 Kcal/mole
 H     -0.0412707988    -5.7009840422     3.1178799435
 F      0.7016526338    -5.7902815398     3.6479551554
 H      1.7654435369    -4.4710430299     3.5973668623
 F      2.2172423408    -3.6870243236     3.4487683795
          4
Energy: -6.327303509025398 Kcal/mole
 H     -0.1278671080    -5.6150702589     3.3022762247
 F      0.7062463679    -5.7948390675     3.6381733587
 H      1.7882408832    -4.4860789697     3.5659252503
 F      2.2223372782    -3.6879167568     3.4418833152
          4
Energy: -6.327033237232342 Kcal/mole
 H     -0.0207216516    -5.7100389089     3.0807204975
 F      0.6996534276    -5.7917764324     3.6422075610
 H      1.7674938060    -4.4697551783     3.6002937397
 F      2.2250625921    -3.6900092134     3.4469443471
          4
Energy: -6.327674793115818 Kcal/mole
 H      0.1663191438    -5.8803387019     2.9049377389
 F      0.6897313457    -5.7827424219     3.6515324302
 H      1.7362249998    -4.4453777810     3.6236722489
 F      2.2267213300    -3.6913023780     3.4457041712
          4
Energy: -6.327858910587736 Kcal/mole
 H      0.1705604071    -5.8719712660     2.8961193190
 F      0.6819163488    -5.7720931904     3.6507241632
 H      1.7405111373    -4.4510267012     3.6180483733
 F      2.2426359393    -3.7065616194     3.4322220426
          4
Energy: -6.327792444989598 Kcal/mole
 H      0.2841805848    -5.9673708954     2.8486799728
 F      0.6758890609    -5.7670324606     3.6532407109
 H      1.7208881309    -4.4352698021     3.6261692340
 F      2.2436768945    -3.7073974865     3.4317912497
          4
Energy: -6.326760248110702 Kcal/mole
 H      0.2703096414    -5.9674188620     2.8542495776
 F      0.6839152776    -5.7763181334     3.6500509908
 H      1.7286051343    -4.4433878583     3.6175328611
 F      2.2482790531    -3.7098194065     3.4366866704
          4
Energy: -6.327599561423995 Kcal/mole
 H      0.1151198094    -5.8263410330     2.9290006336
 F      0.6804752319    -5.7766165565     3.6492712235
 H      1.7552970040    -4.4620625128     3.6153804544
 F      2.2468631111    -3.7088287593     3.4368008506
          4
Energy: -6.327852522614819 Kcal/mole
 H      0.0957794291    -5.8322495359     2.9600864790
 F      0.6929031036    -5.7886007664     3.6546562035
 H      1.7476972124    -4.4629996664     3.6034992107
 F      2.2299409387    -3.7042748418     3.4227600921
          4
Energy: -6.327951323109517 Kcal/mole
 H      0.3051718743    -6.0003090974     2.8482793485
 F      0.6934927412    -5.7904544827     3.6520560246
 H      1.7224635847    -4.4422698010     3.6193542595
 F      2.2312795244    -3.7053745133     3.4219190184
          4
Energy: -6.327954064657945 Kcal/mole
 H      0.3155369951    -6.0098348769     2.8440981540
 F      0.7015636960    -5.7988910665     3.6486943850
 H      1.7182120674    -4.4424063681     3.6174094667
 F      2.2202040927    -3.7007474420     3.4203433767
          4
Energy: -6.327438175438147 Kcal/mole
 H      0.6387682927    -6.2434057640     2.8618920201
 F      0.6722422854    -5.7852527141     3.6555319098
 H      1.6529126465    -4.4057715706     3.6163646112
 F      2.2108927407    -3.7075374350     3.4113858160
          4
Energy: -6.327773498656484 Kcal/mole
 H      0.5997968679    -6.2226833936     2.8529190243
 F      0.6743096294    -5.7863519879     3.6560079065
 H      1.6464514031    -4.3980600760     3.6159075946
 F      2.1975655977    -3.6940950253     3.4119582091
          4
Energy: -6.327924779124487 Kcal/mole
 H      0.4636739559    -6.1227898284     2.8249882317
 F      0.6942863121    -5.7948411124     3.6497042925
 H      1.6835028123    -4.4184490590     3.6230851571
 F      2.2054650897    -3.6904763573     3.4268706661
          4
Energy: -6.327893915419963 Kcal/mole
 H      0.7145592355    -6.2882358491     2.8802325912
 F      0.6809774277    -5.7860645833     3.6467737069
 H      1.6433616164    -4.3897530400     3.6161034889
 F      2.2075944874    -3.6919986148     3.4272410274
          4
Energy: -6.327530321748327 Kcal/mole
 H      0.7894675760    -6.3392757745     2.9422827737
 F      0.6573377572    -5.7639948752     3.6440538174
 H      1.6175655229    -4.3704458624     3.6072547081
 F      2.2089629105    -3.6930228159     3.4277104348
          4
Energy: -6.327862980392126 Kcal/mole
 H      0.7573304854    -6.3256841798     2.9261977959
 F      0.6590425556    -5.7647158779     3.6449070883
 H      1.6265609932    -4.3704181953     3.6094197620
 F      2.2108711285    -3.6875686269     3.4272464027
          4
Energy: -6.327864406999481 Kcal/mole
 H      0.5724485287    -6.1836355067     2.8358458191
 F      0.6688501161    -5.7722512318     3.6497000519
 H      1.6629154708    -4.4007874838     3.6322795184
 F      2.2163256219    -3.6951534901     3.4406891437
          4
Energy: -6.327733748310152 Kcal/mole
 H      0.5086222469    -6.1272906960     2.8241839631
 F      0.6617880715    -5.7606073474     3.6506054972
 H      1.6707922453    -4.4003463656     3.6370117751
 F      2.2249702541    -3.6951059930     3.4461931406
          4
Energy: -6.327088898436159 Kcal/mole
 H      0.4298833686    -6.0909417933     2.8151552134
 F      0.6584699889    -5.7593388549     3.6389735479
 H      1.6781250025    -4.4054694458     3.6373947589
 F      2.2232405267    -3.6914676958     3.4531678167
          4
Energy: -6.327951431582051 Kcal/mole
 H      0.5115348351    -6.1336768611     2.8078703050
 F      0.6458678906    -5.7521338912     3.6308336045
 H      1.6634983901    -4.3951885995     3.6329917472
 F      2.2240164347    -3.6920130709     3.4534013863
          4
Energy: -6.3277781566718545 Kcal/mole
 H      0.4437136924    -6.0711671713     2.7955007104
 F      0.6494656455    -5.7554498858     3.6314897830
 H      1.6805835720    -4.4108322804     3.6344452986
 F      2.2303270850    -3.7011796054     3.4471910574
          4
Energy: -6.327887402364809 Kcal/mole
 H      0.4647250756    -6.0940076178     2.7995723526
 F      0.6483510402    -5.7542382529     3.6312737917
 H      1.6754091134    -4.4070002961     3.6336581196
 F      2.2306015781    -3.7013828833     3.4472328154
          4
Energy: -6.327875958701043 Kcal/mole
 H      0.5176119157    -6.1427710731     2.8111781463
 F      0.6455455155    -5.7516514643     3.6306581312
 H      1.6658767879    -4.3984947335     3.6260471667
 F      2.2329683865    -3.7018144763     3.4418387577
          4
Energy: -6.327750477510278 Kcal/mole
 H      0.5099538655    -6.1363482702     2.8093745017
 F      0.6459517574    -5.7519921791     3.6307538104
 H      1.6741062177    -4.4013736483     3.6159450527
 F      2.2385934388    -3.7040982120     3.4260763003
          4
Energy: -6.327493680440796 Kcal/mole
 H      0.4498327926    -6.0904970084     2.8015769056
 F      0.6491410414    -5.7544244826     3.6311674548
 H      1.6827281187    -4.4059986780     3.6216730874
 F      2.2415606114    -3.7049853471     3.4288634533
          4
Energy: -6.327469213340635 Kcal/mole
 H      0.4755989659    -6.1311327675     2.8134066227
 F      0.6477742054    -5.7522688495     3.6305399157
 H      1.6777654784    -4.4040506729     3.6141394630
 F      2.2418238680    -3.7050886843     3.4292630946
          4
Energy: -6.3277421823638065 Kcal/mole
 H      0.3910440748    -6.0449155748     2.8007481087
 F      0.6522596470    -5.7568424723     3.6312114206
 H      1.6953847972    -4.4156969654     3.6224001689
 F      2.2408892038    -3.7044708754     3.4288248833
          4
Energy: -6.327725405730746 Kcal/mole
 H      0.3332829160    -6.0101165450     2.8097800255
 F      0.6553237430    -5.7586884805     3.6307322983
 H      1.7058650449    -4.4247963456     3.6179229642
 F      2.2403332509    -3.7039881743     3.4290623886
          4
Energy: -6.327886141456531 Kcal/mole
 H      0.1379220646    -5.8523608247     2.8817335498
 F      0.6604466684    -5.7680039502     3.6305599357
 H      1.7317284938    -4.4513801378     3.6049600268
 F      2.2364518285    -3.7083091605     3.4205992986
          4
Energy: -6.327745554548187 Kcal/mole
 H      0.1711804137    -5.8873148085     2.8643139800
 F      0.6586823899    -5.7661497221     3.6314840036
 H      1.7273073388    -4.4488421288     3.6030005846
 F      2.2366863605    -3.7084437960     3.4207032424
          4
Energy: -6.327927895955895 Kcal/mole
 H      0.1762845275    -5.8872730318     2.8610889670
 F      0.6584116284    -5.7661519383     3.6316550831
 H      1.7235856380    -4.4465990910     3.6061598799
 F      2.2364899779    -3.7099604344     3.4185922186
          4
Energy: -6.327888702468101 Kcal/mole
 H      0.2134436454    -5.9111555905     2.8431464581
 F      0.6564404231    -5.7648850237     3.6326068917
 H      1.7210868874    -4.4439577322     3.6096295999
 F      2.2366225309    -3.7101005524     3.4184081580
          4
Energy: -6.327740749905217 Kcal/mole
 H      0.2515122612    -5.9476527535     2.8305083141
 F      0.6544209710    -5.7629489336     3.6332773160
 H      1.7108794666    -4.4372192631     3.6075468503
 F      2.2371640110    -3.7104580126     3.4185186430
          4
Energy: -6.327757779190904 Kcal/mole
 H      0.2261321047    -5.9251457358     2.8388686721
 F      0.6557673296    -5.7641428788     3.6328338184
 H      1.7187247860    -4.4414597539     3.6127879101
 F      2.2367478349    -3.7102330643     3.4182406169
          4
Energy: -6.327957490784456 Kcal/mole
 H      0.1618755878    -5.8799310056     2.8691736448
 F      0.6591759894    -5.7665414158     3.6312262096
 H      1.7261600136    -4.4489848132     3.6037795317
 F      2.2363534133    -3.7098338773     3.4187184906
          4
Energy: -6.327916482356272 Kcal/mole
 H      0.1935959295    -5.8971664839     2.8521390693
 F      0.6574932986    -5.7656271135     3.6321298545
 H      1.7241620657    -4.4464704777     3.6082282410
 F      2.2364593998    -3.7099672570     3.4184824968
          4
Energy: -6.3279569955245165 Kcal/mole
 H      0.1506156305    -5.8707417086     2.8753264498
 F      0.6597733041    -5.7670288868     3.6308998175
 H      1.7278586454    -4.4505294441     3.6022716115
 F      2.2362633048    -3.7097519382     3.4187984823
          4
Energy: -6.32798564967743 Kcal/mole
 H      0.1337903642    -5.8530911989     2.8847175320
 F      0.6606658456    -5.7679652055     3.6304016423
 H      1.7322290822    -4.4536184690     3.6018273241
 F      2.2360314632    -3.7095880726     3.4188220507
          4
Energy: -6.327913591677827 Kcal/mole
 H      0.1115448118    -5.8353802247     2.8991312456
 F      0.6618459208    -5.7689047318     3.6296370281
 H      1.7341637494    -4.4552381460     3.6005453045
 F      2.2359288336    -3.7095021525     3.4188900589
          4
Energy: -6.327874584059373 Kcal/mole
 H      0.0755389907    -5.8066592233     2.9256783176
 F      0.6637559464    -5.7704283145     3.6282287673
 H      1.7390642774    -4.4602842775     3.5930601386
 F      2.2356688719    -3.7092344669     3.4192871296
          4
Energy: -6.327973469991491 Kcal/mole
 H      0.0875529419    -5.8164161537     2.9163671862
 F      0.6631186340    -5.7699107319     3.6287227013
 H      1.7390537305    -4.4597411121     3.5953606381
 F      2.2356694314    -3.7092632805     3.4191650934
          4
Energy: -6.327906676074065 Kcal/mole
 H      0.0432356624    -5.7799677281     2.9532331000
 F      0.6654695633    -5.7718442367     3.6267670497
 H      1.7474609416    -4.4662661010     3.5908657651
 F      2.2352234483    -3.7089171450     3.4194035361
          4
Energy: -6.327966824254531 Kcal/mole
 H      0.0367277976    -5.7697672906     2.9592651531
 F      0.6658147905    -5.7723853463     3.6264470633
 H      1.7487231531    -4.4674560255     3.5891825679
 F      2.2351564908    -3.7088540222     3.4194928258
          4
Energy: -6.327983151973569 Kcal/mole
 H      0.0723293931    -5.8013624555     2.9281256617
 F      0.6639262081    -5.7707092958     3.6280989413
 H      1.7422198699    -4.4621335384     3.5940421287
 F      2.2355014750    -3.7091363679     3.4192350373
          4
Energy: -6.327955192388913 Kcal/mole
 H      0.0738094426    -5.8020396707     2.9269075327
 F      0.6638476949    -5.7706733711     3.6281635602
 H      1.7425054309    -4.4623721124     3.5938196977
 F      2.2354863266    -3.7091237121     3.4192468368
          4
Energy: -6.327949468637314 Kcal/mole
 H      0.0750269043    -5.8030534629     2.9259311040
 F      0.6637831114    -5.7706195918     3.6282153575
 H      1.7411045181    -4.4615232754     3.5935178248
 F      2.2355606418    -3.7091687409     3.4192628504
          4
Energy: -6.327983757068694 Kcal/mole
 H      0.0668165138    -5.7953486331     2.9325866628
 F      0.6642186536    -5.7710283152     3.6278622955
 H      1.7434489541    -4.4629554916     3.5939631950
 F      2.2354362749    -3.7090927651     3.4192392246
          4
Energy: -6.327939120882206 Kcal/mole
 H      0.0299623959    -5.7602814003     2.9658225524
 F      0.6661736794    -5.7728885509     3.6260992084
 H      1.7500323449    -4.4682691700     3.5929216246
 F      2.2372604226    -3.7099952253     3.4240476326
          4
Energy: -6.3279728130756325 Kcal/mole
 H      0.0276668847    -5.7583949082     2.9680815275
 F      0.6662954510    -5.7729886249     3.6259793750
 H      1.7512802170    -4.4693373207     3.5917127787
 F      2.2371942259    -3.7099385624     3.4241117591
          4
Energy: -6.327977383018776 Kcal/mole
 H      0.0271484590    -5.7590247275     2.9685715227
 F      0.6663229522    -5.7729552145     3.6259533819
 H      1.7513429973    -4.4695732249     3.5908232406
 F      2.2371908955    -3.7099260482     3.4241589470
          4
Energy: -6.327990324130212 Kcal/mole
 H      0.0258523538    -5.7599644400     2.9698151081
 F      0.6663917076    -5.7729053649     3.6258874125
 H      1.7506883866    -4.4691861283     3.5906774381
 F      2.2372256211    -3.7099465828     3.4241666815
