          4
Energy: -6.1523248950330185 Kcal/mole
 H      5.6397945905    -6.5230463348     2.4825762664
 F      6.2857480117    -5.9674375734     2.8215926109
 H      6.6655671870    -6.1912405028     4.4114989116
 F      6.8956063936    -6.3780496700     5.2792968711
          4
Energy: -6.185079609077206 Kcal/mole
 H      7.4614672701    -3.9666196458    -3.3885305342
 F      7.3526660108    -3.5904975061    -2.5593240328
 H      5.6680329304    -3.6171787876    -2.0917996701
 F      4.7684967997    -3.7186708715    -1.9454333268
          4
Energy: -6.315646130620905 Kcal/mole
 H     -5.8812032857    -7.4089078905     0.2161800652
 F     -5.8011639818    -6.5250249078    -0.0145439746
 H     -6.7926361018    -5.4900272408     0.9326559986
 F     -7.3827850076    -5.1139126935     1.5252360493
          4
Energy: -5.943568015819068 Kcal/mole
 H      1.5191826873     0.2647552359     3.8900068773
 F      0.9998938777     0.1578606754     4.6382058382
 H      0.9336783951    -1.6567841338     4.9584551288
 F      1.0226119285    -2.5601534056     4.8284405704
          4
Energy: -6.05916457627103 Kcal/mole
 H      7.3747451380     6.0571542549    -4.8342169171
 F      6.6506295059     5.4968094747    -4.8848062297
 H      5.6776386327     6.5015745034    -5.8222028250
 F      5.3339297384     7.2122741904    -6.2887423742
          4
Energy: -6.2103225020536 Kcal/mole
 H      1.7417832970     4.5240745484    -4.2644751764
 F      2.4260780122     4.2041109584    -4.7843338531
 H      2.1832121310     3.0268843619    -6.0176767834
 F      1.9672116185     2.3225476871    -6.5637011667
          4
Energy: -5.9447453772669405 Kcal/mole
 H      0.1955450197     7.3606421653     0.1398568977
 F      0.9410530173     6.8700396629     0.3506079598
 H      2.2633101257     6.7316456951    -0.5751416249
 F      3.0377306661     6.6487077943    -1.0591696522
          4
Energy: -6.148347499818215 Kcal/mole
 H     -1.0459958054     3.7825224042    -3.3351404168
 F     -0.7662362736     3.2760000588    -4.0465184583
 H     -1.7717385064     3.9364318275    -5.2546269736
 F     -2.3926020232     4.4688107204    -5.6693439951
          4
Energy: -6.1056299675053936 Kcal/mole
 H      1.3899716712     4.4436099239     1.6813978217
 F      1.4865405109     4.8686373173     0.8746046796
 H      0.6333745257     4.5290201394    -0.6072078269
 F      0.2637431156     4.2110602383    -1.3838435986
          4
Energy: -6.120705653129676 Kcal/mole
 H      0.6869852226     0.0535450007     1.7355155144
 F      1.4704589651     0.3740182356     2.0881552745
 H      2.1874585614     1.8865881296     2.1408417418
 F      2.4865136515     2.7483689475     2.0470927421
          4
Energy: -6.228511665339823 Kcal/mole
 H     -0.6245970946    -4.8933727409     3.2506194798
 F      0.1850643071    -5.1107676169     3.6222064582
 H      0.2677687508    -5.9922549376     5.1367647233
 F      0.1288723731    -6.3733700599     5.9591685534
          4
Energy: -6.023157677098794 Kcal/mole
 H     -2.1034513597    -7.0198323753     3.4717313443
 F     -2.2000396395    -6.6622297495     4.3105877481
 H     -1.5158138327    -5.0979387085     4.7415205475
 F     -1.2856923449    -4.2252084312     4.9036160872
          4
Energy: -6.094737999138545 Kcal/mole
 H      0.8452634001     2.7040920521    -0.7351218811
 F      0.8361241076     2.3346272680     0.1041046954
 H      1.9509028657     0.9715493965     0.4621855524
 F      2.5568089604     0.2920963274     0.5722325030
          4
Energy: -6.156599587963797 Kcal/mole
 H     -4.6360754445    -2.1716337924    -6.7879911823
 F     -4.1768855227    -1.4017120006    -6.9810042655
 H     -4.5033548440     0.2274040358    -6.5619852131
 F     -4.6585671585     1.0769260939    -6.2535854558
          4
Energy: -6.173366814689473 Kcal/mole
 H     -4.0841513355     2.7506572446     1.7692241455
 F     -4.5839273703     2.1141825695     1.3379320137
 H     -5.7315130233     2.8154329175     0.4034333247
 F     -6.2930111335     3.4257463491     0.0121196557
          4
Energy: -6.22787266023272 Kcal/mole
 H     -2.6458930113     0.1056226518     4.9311835766
 F     -3.3570929890    -0.4618607025     4.8169634633
 H     -4.8405995541     0.4085364415     4.7700321426
 F     -5.5726921504     0.9606751622     4.7615313516
          4
Energy: -6.2498285666264906 Kcal/mole
 H      0.0086924027    -3.0474943743    -5.6239709848
 F      0.5805598638    -2.5765245693    -5.0835599840
 H      0.4742105954    -2.5734289859    -3.3758739561
 F      0.3567577412    -2.5902457930    -2.4665824616
          4
Energy: -6.229020098897678 Kcal/mole
 H     -0.7727766852    -6.7519376093    -3.9140471219
 F     -0.1807581100    -6.5701144006    -4.5903187591
 H     -0.7644741338    -6.3364410645    -6.2280893553
 F     -1.1714748350    -6.1958012820    -7.0376941236
          4
Energy: -6.194797028463427 Kcal/mole
 H     -0.2108665821    -4.9256037857     0.2747564160
 F      0.1157383611    -4.7435264888    -0.5625404662
 H      0.7431261489    -3.1832881958    -0.6005669893
 F      0.9679033505    -2.2964401352    -0.5384000601
          4
Energy: -6.304787046724925 Kcal/mole
 H      3.6617525561    -4.3096402882    -4.2267000587
 F      3.3968640282    -4.7352921503    -4.9945174589
 H      2.3866167468    -6.1174312703    -4.7897416150
 F      1.8372984534    -6.7874337248    -4.4893499980
          4
Energy: -6.255621425076242 Kcal/mole
 H      1.8139952528    -2.7258262088    -7.3257044710
 F      2.6867413298    -2.7470152706    -7.0450724900
 H      3.4520632139    -4.3167310508    -7.1545022733
 F      3.6387834231    -5.2115652799    -7.2272777220
          4
Energy: -6.201175446045482 Kcal/mole
 H     -2.9609554166    -2.0294262619    -5.9296134095
 F     -3.1474421562    -2.8347727825    -6.3265122348
 H     -4.6278543850    -3.7019003325    -5.9027223381
 F     -5.3780777962    -4.0686658345    -5.5238596984
          4
Energy: -6.250662033375733 Kcal/mole
 H      3.3041297071    -4.2157699178     1.6683770283
 F      3.2846499433    -3.5811697474     1.0067183833
 H      4.4851989374    -3.5264490484    -0.2447759103
 F      5.1295862416    -3.6186856773    -0.8906446326
          4
Energy: -6.255108553471246 Kcal/mole
 H      7.2555796161    -1.1972596802     5.6914997584
 F      7.3324198466    -0.6703340250     6.4380477695
 H      7.4046449299     0.9710404148     6.2884411141
 F      7.4507718875     1.8576096139     6.0587535897
          4
Energy: -6.161869300074159 Kcal/mole
 H      0.8809541109    -7.3917795068     0.6076087592
 F      0.9781045557    -6.5699437941     0.2125937564
 H      0.8445999446    -6.5798648720    -1.4024249312
 F      0.7450128185    -6.6651681316    -2.3100012410
          4
Energy: -6.273097460979329 Kcal/mole
 H     -0.4946142818    -6.4596691747    -1.4432331329
 F     -0.4078028033    -6.7055686922    -2.3223725954
 H      1.1227384698    -7.0298920844    -2.9139378958
 F      1.9899630226    -7.1901944771    -3.1651623330
          4
Energy: -6.220359336189233 Kcal/mole
 H     -1.4375252231    -2.5141008839    -3.9425535081
 F     -1.7635044817    -2.2846742632    -4.7683803354
 H     -2.9790551676    -1.1021857596    -4.5567393967
 F     -3.6165716128    -0.5817020297    -4.1523157711
          4
Energy: -6.293108869227012 Kcal/mole
 H     -3.4751910677    -3.4409345930    -3.3579703789
 F     -2.7093380593    -3.0287751896    -3.0673111356
 H     -2.1920365034    -1.6686781442    -3.9017691223
 F     -2.0461217728    -0.9850384535    -4.4952627319
          4
Energy: -6.293779122772378 Kcal/mole
 H     -3.5781995746     4.8313234838    -6.0995116474
 F     -2.7240494557     4.7469759135    -6.4223150889
 H     -1.7322494141     3.7054366449    -5.5134101181
 F     -1.3836677789     3.0672961328    -4.9547004167
          4
Energy: -6.248268835924932 Kcal/mole
 H     -2.3973706880     3.4141558444    -6.1555865412
 F     -2.0301618604     2.7177648169    -6.6257845991
 H     -0.3347289300     2.9973655568    -6.9396061059
 F      0.5340036926     3.2888511050    -6.9746604291
          4
Energy: -6.243323914768268 Kcal/mole
 H     -1.0965807969     1.0519633640    -3.6705926430
 F     -0.4108291513     1.6360856156    -3.8421585943
 H     -0.5161403591     3.2212501882    -3.2239737686
 F     -0.6401396495     4.0696418126    -2.8987894706
          4
Energy: -6.240850735919423 Kcal/mole
 H      4.2869445059     1.2375964314     2.9752093437
 F      3.3804732468     1.3708510478     2.9372348315
 H      3.0646831225     2.6286279438     4.0664369980
 F      3.1298945214     3.3071009504     4.6798788068
          4
Energy: -6.275690603148917 Kcal/mole
 H      2.3585761925     1.2798852688     0.7093514004
 F      2.5971946627     2.0285842218     0.2366991989
 H      3.7956708627     3.0306922456     0.8133585221
 F      4.4341194562     3.5239546887     1.2492077572
          4
Energy: -6.169615560512909 Kcal/mole
 H      4.6338977106     2.9322468095     0.2009619311
 F      4.0368461968     3.3826913322     0.7315448388
 H      3.6650495286     4.9364847832     0.0115208583
 F      3.7548923646     5.6447907168    -0.5639093888
          4
Energy: -6.221574629959889 Kcal/mole
 H      4.0716661455     6.1367769449    -0.5042927721
 F      3.7002970174     5.5935262832     0.1343406825
 H      2.7633451091     4.3606428519    -0.6044190505
 F      2.2457897055     3.8908036496    -1.1979479279
          4
Energy: -6.240620158101876 Kcal/mole
 H     -0.8285711845     4.2093437886     0.2710685301
 F     -1.5895448672     3.7653015257     0.5253017359
 H     -3.1909101817     4.3990328598     0.3858207665
 F     -3.9402954454     4.9189760545     0.2911117341
          4
Energy: -6.208535550923159 Kcal/mole
 H      1.8189924632     2.2386964278    -4.7834010534
 F      1.1505335251     1.6116287949    -4.7544557275
 H      0.3689324095     1.9219141278    -3.2440342009
 F      0.2086376462     2.2990944460    -2.4237113398
          4
Energy: -6.195710744635619 Kcal/mole
 H      1.9406854470     2.7785511342    -6.9272919058
 F      2.4009775363     3.3740627181    -6.4034730956
 H      1.4060395504     4.6247902879    -5.8038109929
 F      0.6732785014     5.0893199686    -5.5068894194
          4
Energy: -6.252991103038596 Kcal/mole
 H     -2.9489129209     4.8718338836    -4.4866496678
 F     -3.0148829723     5.5043033756    -5.1473457355
 H     -1.7717846453     6.5266630049    -5.5431219714
 F     -1.0210698410     7.0360917446    -5.6765335219
          4
Energy: -6.291774757201495 Kcal/mole
 H     -3.6829416628     2.6296499053    -6.0675309089
 F     -3.0610412617     2.7743838485    -6.7256957642
 H     -1.4934372480     2.7316705771    -6.0819344037
 F     -0.7503566298     2.6079292268    -5.5590498341
          4
Energy: -6.213937007290951 Kcal/mole
 H     -2.0688662983     5.3168242655    -6.2472311098
 F     -2.1707198321     4.4115589819    -6.3521578644
 H     -2.3317747609     3.4283265408    -4.9190268032
 F     -2.4447023695     2.9824047447    -4.1257487265
          4
Energy: -6.221336152307231 Kcal/mole
 H     -5.1342482223     5.8279342803    -1.5268883089
 F     -5.2913796276     6.5209782658    -2.1064474134
 H     -6.0590595525     6.0466095844    -3.4624318721
 F     -6.5013193569     5.6182344960    -4.1419832308
          4
Energy: -6.3156430924398705 Kcal/mole
 H     -6.0526396382     6.9425443645    -5.6930597409
 F     -5.2193665785     7.0207091759    -6.0678066824
 H     -4.6525191594     5.5920602519    -6.8408325709
 F     -4.5333294591     4.7499482738    -7.1836593955
          4
Energy: -6.308469863105358 Kcal/mole
 H     -7.0054431122     6.3587203041    -5.0832868191
 F     -6.7033426809     6.1599700669    -5.9259745861
 H     -5.5766063559     4.8666715032    -6.0880671977
 F     -4.9751491754     4.1826297130    -5.9821186754
          4
Energy: -6.159602123671277 Kcal/mole
 H     -4.9553525703     6.9199562892    -6.5913858190
 F     -4.8726209992     6.2765821927    -7.2395480356
 H     -4.3689135134     4.8732135833    -6.3583692658
 F     -4.1711508893     4.2454088079    -5.7199022671
          4
Energy: -6.291646610692169 Kcal/mole
 H     -6.2154731955     3.3664473890    -4.5663857963
 F     -5.4821199177     3.9076327180    -4.6673828734
 H     -4.3970709479     3.6803004899    -5.9332955426
 F     -3.8675961062     3.4257202059    -6.6373795368
          4
Energy: -6.214896856661426 Kcal/mole
 H     -3.6554233376     2.1454159998    -6.7980921526
 F     -4.4463993889     1.7451397389    -6.5635184942
 H     -5.8552226074     2.5965227839    -7.0122412383
 F     -6.5600174052     3.0650964869    -7.3652171268
          4
Energy: -6.304324753096978 Kcal/mole
 H     -4.1470194458     1.3123403125    -4.1982714305
 F     -5.0521111976     1.2098594637    -4.0924621856
 H     -6.0470080796     2.5970001204    -4.0802878243
 F     -6.4820673803     3.4041622723    -4.0903707510
          4
Energy: -6.229677190807081 Kcal/mole
 H     -6.3914361130     1.1978891780    -3.2194678501
 F     -5.5513827149     0.8302471015    -3.2132556064
 H     -4.8511470476     1.3649256433    -4.6418941269
 F     -4.7072505436     1.7165374822    -5.4764909822
          4
Energy: -6.310797477478786 Kcal/mole
 H     -5.8786292889     1.6915587543    -1.3153220367
 F     -5.4918500544     1.2756175421    -2.0352412903
 H     -5.0076287180     2.3861588758    -3.2016902404
 F     -4.8095535034     3.1429005143    -3.6802268659
          4
Energy: -6.319812392218523 Kcal/mole
 H     -2.7057183201     3.0252127378    -1.2955661941
 F     -2.7771874632     2.9974437107    -2.2093550334
 H     -3.6427980079     1.6389177124    -2.7897167344
 F     -4.1132589359     0.8582131849    -2.8899961240
          4
Energy: -6.292391247167188 Kcal/mole
 H     -4.1877574118     3.9152117188    -1.7642314270
 F     -4.8529025893     3.3925666676    -2.1182272509
 H     -4.7021782560     1.7794236676    -1.5239471718
 F     -4.4257464748     1.0206283908    -1.0895462069
          4
Energy: -6.322894498742642 Kcal/mole
 H     -3.7568541917     2.8055717094    -3.8468860852
 F     -4.5663716448     2.8484985050    -3.4182512951
 H     -4.8728762623     1.5374057378    -2.3671937320
 F     -4.8761979153     0.7740664606    -1.8590686346
          4
Energy: -6.316250285573801 Kcal/mole
 H     -3.4964814578     3.2705572429    -4.0182425997
 F     -4.1134026684     3.0671713316    -3.3709935046
 H     -4.4247402694     1.4320753074    -2.9896655500
 F     -4.4833540730     0.5211431392    -2.9021669387
          4
Energy: -6.309973999436181 Kcal/mole
 H     -5.6711851808     2.8003786758    -4.5602297914
 F     -5.1158498325     2.7370829087    -3.8332598492
 H     -5.1725833134     1.2817608356    -2.9290245409
 F     -5.3039139791     0.4642227392    -2.5349779482
          4
Energy: -6.321645255048452 Kcal/mole
 H     -3.5832504522     2.5003527909    -3.8733467832
 F     -4.4765936782     2.5246816807    -3.6678352609
 H     -4.9804182831     1.4269253411    -2.4692073927
 F     -5.0564283790     0.7661008654    -1.8380002336
          4
Energy: -6.324794521647959 Kcal/mole
 H     -3.3248140484     2.1927793450    -4.3166637086
 F     -3.9982216362     2.5389828755    -3.7994071610
 H     -4.8673054176     1.4424428041    -2.8263851282
 F     -5.2279981938     0.7306158585    -2.3746195687
          4
Energy: -6.315520108233557 Kcal/mole
 H     -3.3806490543     3.0393041392    -3.3260964779
 F     -4.1452730612     2.6776731232    -3.6803028251
 H     -4.8423625089     1.4566331213    -2.7300105226
 F     -5.1151482043     0.8355757572    -2.1129491684
          4
Energy: -6.327782010259 Kcal/mole
 H     -3.6077660222     3.2633224833    -3.3719540830
 F     -4.0642282428     2.5820915301    -3.7823875484
 H     -4.8228782044     1.4988733841    -2.7198545319
 F     -5.1579115262     1.0271892964    -2.0084082622
          4
Energy: -6.327989287967455 Kcal/mole
 H     -3.6038476357     3.2634296875    -3.3765364885
 F     -4.0644361042     2.5820858432    -3.7821444624
 H     -4.8213737755     1.5020111530    -2.7170509702
 F     -5.1579913327     1.0270228450    -2.0085569847
