          4
Energy: -6.255000649099827 Kcal/mole
 H     -5.2411938241    -3.5254563106     1.1309075191
 F     -5.1050458945    -2.7364514886     1.5779244452
 H     -6.5526355425    -2.3053120406     2.4574717701
 F     -7.4083732667    -2.3066628891     2.7870170973
          4
Energy: -6.2924434015592965 Kcal/mole
 H     -4.0172907275    -4.9395260510    -0.5117969360
 F     -4.4908668833    -4.7586017591     0.2523241442
 H     -3.6833208133    -3.9431674096     1.4935220250
 F     -3.1280631439    -3.5539936317     2.1108725666
          4
Energy: -6.281438086678634 Kcal/mole
 H      0.1802375617    -4.5115864222     6.3346028961
 F      0.2944101502    -4.5980111421     5.4288521645
 H     -1.1573529774    -4.1482311551     4.6689921591
 F     -2.0258620688    -3.8908473476     4.5263929523
          4
Energy: -6.265844904282687 Kcal/mole
 H     -3.0509719210    -3.3321986921     6.0379320727
 F     -3.2010140565    -2.5245751515     5.6303531550
 H     -2.9886058561    -1.0869119042     6.5415112295
 F     -2.7884776801    -0.4892779254     7.2075978159
          4
Energy: -6.242935533272032 Kcal/mole
 H     -5.6593658827     0.2771798742     4.6347723730
 F     -4.9281422503    -0.2716230892     4.7055982631
 H     -4.2737383774    -0.1112169073     6.2304977269
 F     -3.9833020063     0.0937183956     7.0758007707
          4
Energy: -6.265070689500874 Kcal/mole
 H     -0.9720121769    -4.9478498542     5.5271151254
 F     -0.6409983609    -4.9879268494     4.6728829041
 H     -1.2067266530    -3.7824945513     3.6378781925
 F     -1.6682622773    -3.1375613487     3.1775141716
          4
Energy: -6.319674822819195 Kcal/mole
 H      1.6727107171    -2.3355111816     3.7466532907
 F      0.8399805316    -2.4991018581     4.0940543971
 H      0.3691568748    -4.1277146730     4.0652722237
 F      0.2935806506    -5.0324142164     3.9360593354
          4
Energy: -6.209000177017742 Kcal/mole
 H     -3.5840081255     1.1181585028     4.8382110490
 F     -3.1124127598     1.6483316445     5.4190752766
 H     -1.8525699750     1.0316529576     6.3976887628
 F     -1.2928474947     0.4754687641     6.8648706202
          4
Energy: -6.320988987236831 Kcal/mole
 H     -4.4918455300     1.3994031470     6.4594813995
 F     -4.6689157890     1.0525522849     5.6292828674
 H     -5.5616471284    -0.4000856544     5.7078857681
 F     -6.0215505741    -1.1528059290     5.9584651142
          4
Energy: -6.226315551617063 Kcal/mole
 H     -0.7176960830    -0.6245724851     2.2518178551
 F     -1.5348854606    -0.4525754247     2.6306417355
 H     -2.0834647033    -1.1205849965     4.0753142953
 F     -2.3096811131    -1.6080901618     4.8183175589
          4
Energy: -6.242732637704535 Kcal/mole
 H     -5.3551405129    -1.5397303379     2.7914293030
 F     -5.9341756567    -1.8946891323     3.4075555534
 H     -6.9034046659    -3.3146261333     3.2715783475
 F     -7.3655567625    -4.0736271625     3.0452558399
          4
Energy: -6.307674868595711 Kcal/mole
 H     -6.8040769824    -3.0919737724     5.2193360572
 F     -5.9139656985    -2.8769567678     5.1707707400
 H     -4.9278204411    -4.1961473588     5.4644249890
 F     -4.5276446280    -5.0059523037     5.6224258429
          4
Energy: -6.304041634130726 Kcal/mole
 H     -6.5042573525    -4.3152935869     1.7654768468
 F     -5.7662859475    -4.2919445004     2.3092985323
 H     -5.7532413688    -3.0894099065     3.5253108225
 F     -5.9438587681    -2.3747271271     4.0673279182
          4
Energy: -6.265637831681772 Kcal/mole
 H     -5.1153372933    -3.8320176493     4.5498771888
 F     -4.8634387710    -2.9796500638     4.7754999572
 H     -5.9347803156    -2.2333942203     5.8921214240
 F     -6.6193900746    -1.9369172735     6.4253192277
          4
Energy: -6.240731072017752 Kcal/mole
 H     -1.0369204756    -1.8846330162     5.4036571466
 F     -1.8081337191    -2.1661748929     4.9951803361
 H     -1.4098530596    -3.1293559228     3.7111830676
 F     -0.9962306869    -3.6765264821     3.1025699624
          4
Energy: -6.266461139221519 Kcal/mole
 H      4.1817207688    -2.4082920716     5.1894121337
 F      4.3037058682    -2.8995373171     5.9540602517
 H      3.3570980880    -4.3019674707     5.9469060961
 F      2.8473048168    -5.0231084128     5.7000142933
          4
Energy: -6.259615153834716 Kcal/mole
 H      7.3550520907    -6.7788947185     4.0099225210
 F      6.5151761316    -6.8266771048     4.3749077494
 H      5.3059172466    -5.8679728947     3.6206262548
 F      4.8463202272    -5.2274233984     3.1522717709
          4
Energy: -6.313184222715961 Kcal/mole
 H      2.8596961330    -4.8619515245     6.4980872719
 F      2.4312912548    -4.0545192724     6.4245249269
 H      3.3620158555    -2.6138602731     6.5354869159
 F      3.9892662535    -1.9493047805     6.6117229664
          4
Energy: -6.27652475847043 Kcal/mole
 H      4.0846988718    -2.6809926911     7.3242353870
 F      4.4846835759    -3.2148354945     6.6950191302
 H      5.9311009581    -2.6036922580     5.9223088292
 F      6.6680299287    -2.1354911325     5.6419298027
          4
Energy: -6.310335800931796 Kcal/mole
 H      4.0504462135    -2.2279058149     3.4837635845
 F      3.8956390543    -2.6599767291     4.2776391847
 H      4.6802724385    -2.0862530368     5.6644867049
 F      5.1923566993    -1.7006655571     6.3202160739
          4
Energy: -6.292919241464745 Kcal/mole
 H      3.6116759582    -0.6424868740     5.2149387288
 F      4.4962114807    -0.4016747997     5.2371975295
 H      5.1176550772    -0.0561696271     3.6662579889
 F      5.2895782556     0.0948354473     2.7782664979
          4
Energy: -6.311566135779856 Kcal/mole
 H     -0.6771563085    -1.3564575764     2.4374477231
 F      0.1530762196    -1.0843444311     2.7159389895
 H      0.1523896406     0.5656561306     3.1037477364
 F     -0.0569132316     1.4382559226     3.2925622239
          4
Energy: -6.267674287561874 Kcal/mole
 H      0.4017917074     3.2988890663     3.6045533918
 F      0.9899751747     3.9700124713     3.8155571450
 H      2.1511529413     3.4893088951     4.9622188181
 F      2.6782751612     3.1361617820     5.6242749198
          4
Energy: -6.317068890464554 Kcal/mole
 H      1.4926843409     6.5644341827     3.1800614617
 F      1.1409457847     5.8038803895     3.5525220849
 H     -0.3263711854     5.9454202507     4.3783211075
 F     -1.1186879010     6.1536940046     4.7903226435
          4
Energy: -6.292272687269019 Kcal/mole
 H      0.2260344508     5.9131559520     2.6614509187
 F     -0.1404473345     5.5358238292     3.4125837765
 H     -1.7702910279     5.8536877767     3.5566658883
 F     -2.6487396282     6.1153482641     3.5292643211
          4
Energy: -6.285925516908776 Kcal/mole
 H     -2.8918254583     1.2936932680     1.7726946045
 F     -2.4888135920     0.5114088618     1.5148156728
 H     -1.6181730473     0.7603934932     0.0746550817
 F     -1.2844645379     1.1066068010    -0.7061547391
          4
Energy: -6.313578825069499 Kcal/mole
 H     -2.1463331368    -1.3010180334     3.0738898778
 F     -1.7785546661    -0.5127901467     2.7835025588
 H     -2.5886404098     0.3708632199     1.5974360156
 F     -3.1196121406     0.7286264891     0.9409579396
          4
Energy: -6.320094152576189 Kcal/mole
 H      0.0186423482     3.3923266056     6.1907454272
 F      0.4017343769     3.3400876443     5.3592404131
 H     -0.6900948272     3.1189635192     4.0855280761
 F     -1.4252300093     2.9845655791     3.5541125534
          4
Energy: -6.285424578448271 Kcal/mole
 H      0.5439563808     1.9988716563     5.7548988384
 F      1.3092184840     1.6141743527     5.4273764758
 H      1.2432490087     1.4729398592     3.7086305564
 F      1.0504177099     1.4826029439     2.8121866289
          4
Energy: -6.295400775632743 Kcal/mole
 H      1.2519598143     4.4899361475     5.4431633025
 F      1.1878879118     5.4044869537     5.4236539660
 H      0.9446995126     6.0679136234     3.8426360308
 F      0.8475031156     6.2479846634     2.9487589246
          4
Energy: -6.282017275501346 Kcal/mole
 H     -3.7460539912     5.2343243952     3.9404963470
 F     -3.8079839387     5.2611904006     3.0259845104
 H     -2.3465284163     5.5840436693     2.2573241479
 F     -1.4952904596     5.7192945041     1.9442903594
          4
Energy: -6.290673845258027 Kcal/mole
 H     -3.7115134170     5.5323943411     0.5733820552
 F     -4.4330053528     5.4342350797     1.1307895776
 H     -4.4684283415     6.0007680670     2.7400191288
 F     -4.3606483808     6.3315401007     3.5884661465
          4
Energy: -6.2844264928485245 Kcal/mole
 H     -2.8125761336     5.8177326179     4.5892760971
 F     -2.3916230349     6.4642243423     4.0935584971
 H     -2.5341611851     6.3807782308     2.4130445639
 F     -2.7722615185     6.1741488034     1.5519397439
          4
Energy: -6.274108754650911 Kcal/mole
 H     -5.3727212056     5.5372448768     4.6384181673
 F     -4.6488137424     5.2148734163     4.1769816862
 H     -5.2389079860     4.4892175968     2.7335262438
 F     -5.7972179820     4.2025493527     2.0649454588
          4
Energy: -6.301808210576439 Kcal/mole
 H     -4.2700367517     5.0010752671     1.2697980672
 F     -3.8182818470     5.6842897528     0.8574578283
 H     -4.9371918940     6.6922517180     0.1101784104
 F     -5.6906541554     7.0953768853    -0.2224981893
          4
Energy: -6.252305024588736 Kcal/mole
 H     -3.4340237471     5.6811256302    -0.3576594308
 F     -4.1974934234     5.4500863256     0.0946942948
 H     -5.5974965347     6.4633213542     0.2112668131
 F     -6.2700541318     7.0803251874     0.1226014398
          4
Energy: -6.3124502392713 Kcal/mole
 H     -4.0842593751     3.6860316977    -0.9491350599
 F     -4.8658291684     3.5196083951    -1.3989582947
 H     -5.8148316082     2.3911536247    -0.5654370176
 F     -6.1932430892     1.7774981912     0.0012381628
          4
Energy: -6.3043259848801085 Kcal/mole
 H     -3.2322006679     0.7650439533    -2.2092872484
 F     -2.7893410312     0.9324953551    -1.4239692425
 H     -3.5569319260     0.7640986076     0.0752891958
 F     -4.0882211154     0.6154468065     0.8077667991
          4
Energy: -6.300523064591459 Kcal/mole
 H     -0.0383891186     1.4345492695     0.8537455619
 F     -0.2486641730     1.8477636974     1.6449011965
 H     -1.6831555823     1.3717599151     2.3546523778
 F     -2.4987993429     1.0144717884     2.5736488397
          4
Energy: -6.298762016221701 Kcal/mole
 H     -0.5546754805     1.7388549531     2.0314363031
 F     -0.6985216388     2.6158940589     2.2572674117
 H     -2.3357998321     2.9683318357     2.4775720094
 F     -3.2508900015     3.0179590539     2.5097608456
          4
Energy: -6.289425357126959 Kcal/mole
 H     -0.8175520507     0.9263553402     2.6586956415
 F     -0.3325577377     1.2975742641     1.9746883120
 H     -1.1661662894     2.4657639527     1.1501162180
 F     -1.7575792401     3.0868968994     0.8255956727
          4
Energy: -6.308020897141262 Kcal/mole
 H     -1.4222758333     3.2395509353     2.3406908778
 F     -1.2166877292     2.3459219607     2.3336348787
 H     -1.6309395691     1.6359056280     0.8510328692
 F     -1.8920096265     1.4110553405     0.0012247889
          4
Energy: -6.262963700631076 Kcal/mole
 H     -0.9781894471     1.3614279458     2.1334174823
 F     -0.2783865423     1.9467456228     2.2259815760
 H      0.2085494129     2.5873654893     0.6796621982
 F      0.2396860436     2.7622457581    -0.2199690606
          4
Energy: -6.30753349591771 Kcal/mole
 H     -1.8400426998     1.2634251053     1.5951744882
 F     -1.5838178081     1.8583530329     0.9460993264
 H     -0.8493617034     1.1444609648    -0.3817844060
 F     -0.4462600252     0.6335984795    -1.0278630066
          4
Energy: -6.314848698437288 Kcal/mole
 H     -2.5827777100     1.3611557927     1.3729705690
 F     -2.4312969608     0.7445841417     0.7113196174
 H     -1.1317866268     1.0707525531    -0.3018952084
 F     -0.3866530141     1.3608508214    -0.7507915150
          4
Energy: -6.308886645861435 Kcal/mole
 H     -2.0767359799     1.2412797311     2.1358809330
 F     -1.2779950698     1.2871584672     1.6877770388
 H     -1.2997513058     1.9035160900     0.0868051287
 F     -1.4485014665     2.2507184557    -0.7487862230
          4
Energy: -6.318136283594015 Kcal/mole
 H      1.3233033785     4.0127495541     1.6845213662
 F      1.3536970845     3.2986369275     1.1100578084
 H      0.1035669994     3.1173797016    -0.0149208634
 F     -0.6466569940     3.1521823384    -0.5410783836
          4
Energy: -6.290567797186043 Kcal/mole
 H      2.0112808816     4.3841962698     0.9060634940
 F      1.6930145872     3.5401615946     0.7411361372
 H      0.0440814684     3.5224119050     0.3873485184
 F     -0.8404991874     3.7402715276     0.2827385361
          4
Energy: -6.305533875867525 Kcal/mole
 H      1.1592142326     1.9821713863     1.9801053051
 F      1.4055681231     2.4397134134     1.2245564622
 H      0.1742826653     3.3080392609     0.3906712304
 F     -0.5696045743     3.7311535737     0.0612853577
          4
Energy: -6.315467127534021 Kcal/mole
 H     -0.5576907230     3.8332592976     2.8908937939
 F      0.2674832584     3.6303154989     2.5462335047
 H      0.2941378763     3.0140506173     0.9775342544
 F      0.1223774666     2.7282538865     0.1233050169
          4
Energy: -6.313256537777534 Kcal/mole
 H      0.4685261248     2.6153774946     2.3851811560
 F      0.3488986756     1.8593310482     1.8802335900
 H     -0.2990180964     2.2539562609     0.3648209149
 F     -0.6625770607     2.6553271034    -0.3751894406
          4
Energy: -6.314265770044699 Kcal/mole
 H      1.3178295176     2.3049585073     1.5556957271
 F      0.4313968531     2.4907876098     1.6992006953
 H     -0.4058481893     2.6449967933     0.2491518915
 F     -0.6612974243     2.6842515010    -0.6306740892
          4
Energy: -6.315190256015853 Kcal/mole
 H      0.8288786696     0.9831649239     1.0398305885
 F      0.6124937776     1.8155376033     1.3579851124
 H     -0.7214007987     2.5974004859     0.6458551146
 F     -1.4559263714     2.8354202968     0.1511756702
          4
Energy: -6.302139166170889 Kcal/mole
 H      0.6345899556     0.3676966196     1.1473376897
 F      0.4947447414     1.2558173910     1.3278198534
 H     -0.5589390189     1.9506720691     0.2424096075
 F     -1.1381307694     2.1448290415    -0.4414975398
          4
Energy: -6.310815132814184 Kcal/mole
 H      1.4683811722     1.9340258640     0.2018626608
 F      0.7609789569     2.0573189408     0.7721870623
 H     -0.7241141549     1.9975366004    -0.0411035017
 F     -1.4382503636     1.9508737810    -0.6144455084
          4
Energy: -6.317227976912989 Kcal/mole
 H      0.7988635600     2.3864622998     1.7970470546
 F      0.8086853552     2.0781973375     0.9334700485
 H     -0.6327023496     2.2717977729     0.0615999784
 F     -1.4560045794     2.4653597432    -0.2927955662
          4
Energy: -6.322475534243438 Kcal/mole
 H      0.6197951159     2.3323446701     1.6340459299
 F      0.7469292846     1.9312188653     0.8192919843
 H     -0.6397005140     1.7039342361    -0.1141942509
 F     -1.4750169650     1.6778890049    -0.4916291097
          4
Energy: -6.316085583200049 Kcal/mole
 H      0.9509593348     2.2466221313     1.2018853183
 F      0.8521237954     1.6922476864     0.4781522798
 H     -0.6837738338     1.5127078587    -0.2396060349
 F     -1.5576571677     1.5118158150    -0.5174839272
          4
Energy: -6.326351579674679 Kcal/mole
 H      0.9923640582     2.9663616527    -0.1420986151
 F      0.8094447136     2.3867661431     0.5445589114
 H     -0.6972887212     1.6073118749     0.4369169798
 F     -1.5344361719     1.2955684651     0.2298199197
          4
Energy: -6.323582886466511 Kcal/mole
 H      0.7676164398     2.4426306537     1.3484083964
 F      0.7567617545     2.3413441889     0.4370839603
 H     -0.7095216132     1.8110348698    -0.2176785298
 F     -1.5525911472     1.5141636023    -0.4225936621
          4
Energy: -6.323944538200465 Kcal/mole
 H      0.8394911582     3.2587414363    -0.0213342317
 F      0.5829100985     2.5310559406     0.4741745767
 H     -0.9037173004     1.8221070068     0.0157103244
 F     -1.7040265109     1.5735947555    -0.3566280010
          4
Energy: -6.321675843420394 Kcal/mole
 H      1.2000181751     2.1145231206    -0.1367654916
 F      0.5838300566     2.4887010897     0.4299725873
 H     -1.0085808191     2.0906328026    -0.0107299836
 F     -1.7740342755     1.7612639507    -0.3934650951
          4
Energy: -6.325272451845535 Kcal/mole
 H      0.9135311267     1.8068865345     1.0723445622
 F      0.5687349244     2.4496464648     0.5165889946
 H     -0.9715968011     2.0760115206    -0.0932115816
 F     -1.7890679442     1.7165204662    -0.3015289165
          4
Energy: -6.326776624802562 Kcal/mole
 H      0.5185312003     3.0833610847     1.1348081218
 F      0.5726582241     2.4073786087     0.5175505115
 H     -0.9138831444     1.8569165560    -0.0726142208
 F     -1.7920196744     1.6961967810    -0.2822195368
          4
Energy: -6.327595533546287 Kcal/mole
 H      0.5101512150     3.0580936415     1.1605738468
 F      0.5731027630     2.4087189882     0.5161836993
 H     -0.9138480306     1.8657341549    -0.0798492290
 F     -1.7920215371     1.6957290278    -0.2818357364
