          4
Energy: -0.03890596352047737 Kcal/mole
 H     -4.9941738973    -0.1342750676    -4.8872003625
 F     -4.5155693557    -0.8528088058    -4.5781114435
 H     -2.9306960947     3.4063024215     1.1760812563
 F     -2.5914772936     4.1220245143     1.6382083934
          4
Energy: -6.05546062771117 Kcal/mole
 H     -6.4398698210     0.9266443756    -3.2563704661
 F     -5.5855796744     1.2562545633    -3.2070301208
 H     -4.2759081799     1.3642967242    -4.3341261610
 F     -3.5647657467     1.4770147929    -4.9019818441
          4
Energy: -4.723996408010009 Kcal/mole
 H      3.1390568142    -7.2271215129     2.3386548945
 F      3.6497319075    -6.7714595034     1.7283499852
 H      2.8528206313    -7.4892410592     4.2722099657
 F      2.1877013317    -7.4603292145     3.6415996086
          4
Energy: -0.02366047475478439 Kcal/mole
 H      1.1451799705     4.3108478876    -6.2016245502
 F      1.2159942636     4.1087540409    -7.0932704514
 H     -3.7102896777    -0.1590146847     5.0281876956
 F     -4.0680934364    -0.0398231211     4.1923295488
          4
Energy: -5.47517610762651 Kcal/mole
 H     -1.7639048803     1.7150163075    -2.9093835495
 F     -1.9258639071     0.8153238456    -2.8371911152
 H     -3.2116726240     1.0382937025    -3.9559467858
 F     -3.6482404395     1.4606898233    -4.6428813239
          4
Energy: -5.8381038453896394 Kcal/mole
 H     -0.1063163055     2.1803681316    -2.0490041563
 F      0.6138758808     1.6428187546    -1.8666504285
 H      1.9297451974     1.8582312751    -2.8707255430
 F      2.4284490449     1.9185460176    -3.6378928027
          4
Energy: -4.95013466066257 Kcal/mole
 H      2.8382556944    -4.1587784786     3.7235025775
 F      2.5700298188    -3.5838000450     3.0614272944
 H      4.8120912092    -4.8821171336     4.2338759065
 F      3.9394898648    -5.0403729740     4.4671375251
          4
Energy: -5.308263351741232 Kcal/mole
 H      0.1002952260    -5.3254008493    -2.0449217067
 F     -0.3417311847    -4.6043837134    -1.6904700994
 H     -1.7531035932    -4.2241644979    -2.8586627827
 F     -2.4551617272    -4.0088558187    -3.4078854599
          4
Energy: -3.65694156256248 Kcal/mole
 H     -0.7037430752     4.3594338440     0.0011850995
 F     -1.1032959150     4.1245259544     0.7924276740
 H      0.3063880075     2.0136550564    -1.1713383777
 F      0.4495453880     2.9183120308    -1.2159558969
          4
Energy: -5.944488962337459 Kcal/mole
 H     -1.8923071710     2.1063915484    -0.0151715746
 F     -2.5046485348     1.5178334460    -0.3608974983
 H      0.2710082052     2.4596188675    -0.1587490777
 F     -0.3909188419     3.0337770189     0.1115914509
          4
Energy: -5.472222599066384 Kcal/mole
 H     -6.9192909957     0.1900027263     5.0144199204
 F     -6.7446478234     1.0193923278     4.6644175614
 H     -5.4600255834     2.1527347557     5.6579463271
 F     -4.9256906398     2.3974806512     6.3618459042
          4
Energy: -5.116506327211368 Kcal/mole
 H      3.6917851920    -5.6018124049     3.4035743304
 F      4.2911425088    -6.2825433806     3.5387229357
 H      3.3961921947    -4.3018317828     2.0313665962
 F      3.0649571935    -4.2870657854     2.8863252732
          4
Energy: -5.58502046601771 Kcal/mole
 H      4.1102017471    -3.1319522957    -6.1180482387
 F      3.4263517312    -2.9788291482    -6.7094799402
 H      1.9418784528    -2.0282210038    -6.0074886041
 F      1.2035201594    -1.7095284546    -5.5668628109
          4
Energy: -5.046658057277227 Kcal/mole
 H      3.7046772668    -5.7000723974     6.4243836576
 F      4.4021951333    -5.3179562515     6.8808319866
 H      2.2367949185    -4.0189374989     5.6179260407
 F      2.1407164349    -4.9273123392     5.5372224195
          4
Energy: -3.7565985491969798 Kcal/mole
 H     -6.1440696132     6.8800532529     6.7917697871
 F     -6.5574717127     6.6871898628     5.9962879099
 H     -5.2531406951     6.8580833189     4.3451858634
 F     -4.5702615078     6.3543211456     3.9976391927
          4
Energy: -5.3527073769960225 Kcal/mole
 H     -6.9901679637     6.0255833833    -0.0428670452
 F     -6.2569226231     6.4408057952     0.3188381098
 H     -4.5994436506     6.7497901582     0.1303547409
 F     -3.7203751365     6.5584398288    -0.0471631425
          4
Energy: -5.3219278784068536 Kcal/mole
 H     -0.2629267143     4.8437118221    -2.5053790539
 F     -0.1866446808     4.5040136764    -3.3537157920
 H     -1.2678479634     6.4784467378    -0.5331847812
 F     -0.7809084877     5.7440731213    -0.7871027569
          4
Energy: -6.217056989976584 Kcal/mole
 H     -0.5110181625    -3.5484146498    -2.4829321904
 F     -0.9582506480    -3.1111122820    -1.8123811163
 H      0.1456723190    -2.5795262785    -0.6593168913
 F      0.9433175147    -2.3645281994    -0.2612880384
          4
Energy: -5.735034851152335 Kcal/mole
 H     -2.1984561204    -5.9840548723    -1.5279095903
 F     -2.3589188876    -6.2404556225    -0.6622310381
 H     -4.2031083283    -6.7227417748    -0.5751266622
 F     -5.0595070069    -6.8255594118    -0.8864124423
          4
Energy: -4.545136733652782 Kcal/mole
 H      0.0322127255     2.9749010701    -1.7877497992
 F     -0.3143617640     2.2958048984    -1.2782367840
 H     -1.7442802126     1.6033411133    -0.4462622489
 F     -2.6387609881     1.7355218707    -0.2935488251
          4
Energy: -5.847284290830487 Kcal/mole
 H      5.9517613895    -4.8670426807     4.5047255626
 F      5.8272891433    -5.6672854434     4.9348501732
 H      4.4393324668    -5.7676013030     5.7095148771
 F      3.5666561792    -5.7814321759     5.9908221897
          4
Energy: -5.596261591437809 Kcal/mole
 H      6.4137191808    -2.1629053505     5.6573322441
 F      6.7153862525    -1.3141317957     5.8289988698
 H      5.0460797495    -3.7856987461     4.4001259020
 F      5.4711993705    -3.7685165155     5.2124479310
          4
Energy: -6.143171278304749 Kcal/mole
 H      5.8217427156    -2.0782529225     2.3666983556
 F      5.8209425045    -1.1887676454     2.1437537405
 H      5.4387152009    -1.2350754443     0.5129192374
 F      5.3022957292    -1.5812620943    -0.3251938404
          4
Energy: -5.408383285760237 Kcal/mole
 H     -3.5716615192     2.5971315688     3.5824292895
 F     -3.9708990260     1.7766370109     3.6734627647
 H     -1.7913451865     3.8768015571     3.7176339874
 F     -2.4524529975     3.8100337079     3.0856786752
          4
Energy: -5.389130786170654 Kcal/mole
 H     -3.2897982181    -1.7321856294    -0.1486835815
 F     -3.5242746887    -0.9283736065     0.2252094736
 H     -3.8597915649     0.1833233345    -1.2029825362
 F     -4.2988911916     0.4256275087    -1.9706863886
          4
Energy: -5.406782138267886 Kcal/mole
 H      3.6652317413    -1.5171123486    -1.5995835018
 F      2.7661393679    -1.6742629280    -1.6880459210
 H      5.6933340175    -2.3209441259    -1.2758724834
 F      5.2564629190    -1.6516057149    -1.7253374262
          4
Energy: -5.965852320108809 Kcal/mole
 H     -1.6651794892     1.7596351492    -4.2077184088
 F     -2.3457056731     1.1545234392    -4.3154817207
 H     -0.4545437212     2.2531176918    -2.5457092209
 F     -0.2842505165     2.4917352629    -3.4145883144
          4
Energy: -5.257243862855944 Kcal/mole
 H     -5.2787334474     4.3629100639     2.9367213231
 F     -4.7399806598     4.6734227817     2.2627656228
 H     -6.3539559053     5.6762963194     4.0049263409
 F     -6.6183034915     4.8123479318     4.1617783005
          4
Energy: -6.2117321981021405 Kcal/mole
 H      4.4076801063     0.1934470585     5.4236834881
 F      4.9659814431    -0.4976437529     5.1965665410
 H      5.1241047344    -2.0181089638     5.9565576569
 F      5.1624411702    -2.7506190684     6.5068741699
          4
Energy: -5.504940999999519 Kcal/mole
 H      2.9328972999     4.0552436815     3.4528008395
 F      2.9533218950     4.7636989659     2.8709392185
 H      1.8759317027     2.5741498121     2.8010044982
 F      2.2252320817     2.4045909833     3.6317439572
          4
Energy: -5.883817585987771 Kcal/mole
 H     -5.4095864979    -2.6531380158     0.0571543286
 F     -6.3014096235    -2.4513708096    -0.0123475209
 H     -3.3470319286    -2.7059992618    -1.3325253121
 F     -3.7039366314    -2.8031178102    -0.4934329330
          4
Energy: -5.11998276008768 Kcal/mole
 H     -2.4584895529    -1.9547413035    -3.7148165396
 F     -3.0229849516    -1.2524117869    -3.8850140571
 H     -0.5129665823    -2.3939694555    -1.9891098260
 F     -0.8264480530    -2.5916372456    -2.8278862039
          4
Energy: -5.896831968928041 Kcal/mole
 H     -2.5244220971     4.5724510716     1.3713352357
 F     -1.7437628852     4.9733018984     1.1052923643
 H     -4.6471925729     3.7293457405     0.9372115373
 F     -3.9156118039     3.7190074816     1.4899969376
          4
Energy: -6.001808541808373 Kcal/mole
 H     -6.5139017189    -0.9793781001    -0.3362150592
 F     -7.3108506628    -0.6018894975    -0.5877378929
 H     -5.6335495550    -1.8186928635     1.4039618361
 F     -5.3329953370    -1.9052976287     0.5419550051
          4
Energy: -6.164363180559064 Kcal/mole
 H     -6.5286794923    -1.9551361702     0.3775739621
 F     -6.1898819053    -1.3424022875     0.9697414924
 H     -5.5019853125    -1.9087500781     2.4319619305
 F     -5.2651032641    -2.2614419750     3.2446022697
          4
Energy: -6.294954534844294 Kcal/mole
 H     -4.6819759419     2.6307731672    -4.4784332050
 F     -5.4367036502     2.8769282805    -4.0194313025
 H     -6.6873041366     1.7959049849    -3.6605591625
 F     -7.2771042663     1.1067514094    -3.5260520761
          4
Energy: -6.253545373823442 Kcal/mole
 H      0.1171104397    -0.6241002473    -3.3121730683
 F      0.3774013827    -0.6164449577    -4.1914221920
 H     -1.5972727694    -0.6436127274    -1.6422157785
 F     -0.6897712675    -0.6478619595    -1.7737907306
          4
Energy: -6.037942749373258 Kcal/mole
 H      4.8594101213     2.0044792196     4.0934996980
 F      5.3050157703     2.1536966754     4.8809377949
 H      4.2096761350     1.7034276482     1.7746396572
 F      4.0056417663     1.8478264976     2.6569139619
          4
Energy: -6.0566314566118535 Kcal/mole
 H      1.5689262466    -1.6152798130     3.9840652786
 F      1.8177656648    -1.0108427087     3.3409294214
 H     -0.0535704824    -2.6851792200     5.0263866127
 F      0.8474862814    -2.7863179732     4.8894316528
          4
Energy: -6.195398538914901 Kcal/mole
 H      0.2290264167     5.5790133444     6.5117357210
 F      0.3306844202     4.7442043972     6.1461558091
 H     -1.4500387225     7.0711359132     6.8197522254
 F     -0.5424681083     7.0705951904     6.9509173422
          4
Energy: -6.116038107513759 Kcal/mole
 H      4.4080265665    -2.4970557896     3.5319954617
 F      4.3013574028    -2.2270684254     2.6621578259
 H      5.3816938568    -3.1914932957     5.6484154877
 F      4.6660072663    -2.9255050152     5.1405454859
          4
Energy: -6.181029344356546 Kcal/mole
 H      3.5622159817    -1.1884143769     6.0071878551
 F      4.1412251705    -1.2962047610     5.3043232932
 H      2.2941999403    -2.1835640660     7.4508410460
 F      2.5968774067    -1.3196533189     7.3966785819
          4
Energy: -6.244365604098277 Kcal/mole
 H      6.7930092390    -5.8222464023     5.5511254319
 F      7.1963937066    -6.1771030161     6.2942584987
 H      5.1575886818    -4.4363970937     5.0077577037
 F      5.6943387600    -5.0117333394     4.5368261184
          4
Energy: -6.04844967670482 Kcal/mole
 H      0.1487548528    -0.1529380161    -0.0759524482
 F      0.9231734616     0.0479057571    -0.5240892543
 H     -1.4795462792     0.9232217681     0.4222998852
 F     -1.3653798397     0.0494207321     0.6759271189
          4
Energy: -6.174024972786356 Kcal/mole
 H     -3.4601006217     0.2304319578     6.2743755742
 F     -2.5731331091     0.0442301148     6.4140412652
 H     -5.5431360317     1.3892789267     6.6362836271
 F     -5.0785348204     0.7114315796     6.2293958188
          4
Energy: -6.0435025405401746 Kcal/mole
 H     -2.3303942346    -1.2196273726     5.6385531049
 F     -1.4799152576    -0.9898048769     5.8930253630
 H     -4.2912956308    -1.7941432065     4.2962963768
 F     -3.8207503727    -1.8492303756     5.0814343034
          4
Energy: -6.252734418303987 Kcal/mole
 H     -4.0845284979    -0.5408103901     4.3734941831
 F     -4.2673395888     0.0534349364     5.0475428439
 H     -5.1015055746    -1.6450064995     2.7448764404
 F     -4.2212749817    -1.6103759878     2.9995994879
          4
Energy: -6.284954243235859 Kcal/mole
 H     -3.0981593951     0.8078730976    -0.8968849058
 F     -3.3286487186     1.4532683682    -0.2875995733
 H     -2.1517171399    -1.1581996623    -0.9406025517
 F     -2.5305965583    -0.6349939148    -1.5914444159
          4
Energy: -6.291237535807113 Kcal/mole
 H     -3.2597334737    -0.6518592010    -1.4117443309
 F     -4.0247074482    -0.2046936080    -1.6478518292
 H     -2.1662749154    -1.6707259449     0.2201900207
 F     -1.9543806248    -1.4433600292    -0.6425350514
          4
Energy: -6.327986319385957 Kcal/mole
 H     -3.2387248293    -0.6110100116    -1.4001273638
 F     -4.0250585887    -0.2064006572    -1.6427371105
 H     -2.0417707116    -1.5346995870     0.2558398610
 F     -1.9270240968    -1.3707019834    -0.6390495179
