          4
Energy: -6.3256911214220395 Kcal/mole
 H     -0.1490854151    -5.5436366287     4.2800655386
 F      0.4153618593    -5.5902290502     3.5588738715
 H      1.5191222426    -4.3087594043     3.4183936722
 F      2.0389775373    -3.5594747366     3.5143726246
          4
Energy: -6.327367973155958 Kcal/mole
 H     -0.1312751661    -5.5861505002     4.3376136092
 F      0.3576079549    -5.5692335431     3.5619873393
 H      1.4655543072    -4.2967777556     3.4313316284
 F      1.9997834866    -3.5577268236     3.5277261492
          4
Energy: -6.325417591420376 Kcal/mole
 H     -0.1498067735    -5.5667286838     4.1649460838
 F      0.4630733765    -5.6289188553     3.4856822880
 H      1.5495570538    -4.3396975523     3.4140581687
 F      2.0345029802    -3.5691123531     3.5232135587
          4
Energy: -6.326897263827732 Kcal/mole
 H     -0.2555615703    -5.4804070782     4.0509944930
 F      0.4270129838    -5.6022342303     3.4508785683
 H      1.5901252166    -4.3621320848     3.4156385834
 F      2.1028881420    -3.6102904264     3.5283208938
          4
Energy: -6.324610731033715 Kcal/mole
 H     -0.0195726550    -5.6227262376     2.7383827465
 F      0.4268755355    -5.5880425102     3.5386139957
 H      1.5365358240    -4.3236728187     3.6549186699
 F      2.0744090878    -3.5876279850     3.5558260113
          4
Energy: -6.327312568101775 Kcal/mole
 H      0.6547104781    -6.2415135348     3.3528306305
 F      0.3064233420    -5.4654278568     3.6952866003
 H      1.3579674270    -4.1342597272     3.6485594068
 F      2.0512596846    -3.5419835606     3.5513802533
          4
Energy: -6.326294578525733 Kcal/mole
 H      0.6749567963    -6.2719087873     3.7051071393
 F      0.2919596818    -5.4468678339     3.5888761817
 H      1.3573773990    -4.1198318794     3.5492495679
 F      2.0595207930    -3.5300467364     3.5553437695
          4
Energy: -6.327649243343217 Kcal/mole
 H      0.6691936702    -6.2166358263     3.8648969663
 F      0.2887787579    -5.4457410138     3.5456875013
 H      1.3336783305    -4.1148196372     3.4469886415
 F      2.0270521640    -3.5150123955     3.4657769335
          4
Energy: -6.327234461579735 Kcal/mole
 H      0.5415952158    -6.0724274683     4.1426959369
 F      0.2937486511    -5.4455746364     3.5209913387
 H      1.3453023180    -4.1267817272     3.3572015943
 F      2.0171881918    -3.5039940436     3.3971249425
          4
Energy: -6.324700083622702 Kcal/mole
 H      0.6896303076    -6.2705903788     3.6310262669
 F      0.3068904416    -5.4432359486     3.5316087542
 H      1.3841463524    -4.1478731709     3.3625058906
 F      2.0900665740    -3.5654521493     3.3046146631
          4
Energy: -6.325406345976035 Kcal/mole
 H      0.6271623612    -6.2403439396     3.6201946244
 F      0.2658573171    -5.4080748180     3.4872443544
 H      1.3677636530    -4.1285714113     3.3498229011
 F      2.0895415118    -3.5668914681     3.2831793423
          4
Energy: -6.327157499415932 Kcal/mole
 H      0.3622977762    -6.0377842981     2.8743759914
 F      0.2644036806    -5.4093925817     3.5350041749
 H      1.3729702209    -4.1226233355     3.5080018685
 F      2.0355869723    -3.5094113383     3.3473809258
          4
Energy: -6.325223665732665 Kcal/mole
 H      0.0784284798    -5.7862641435     2.6525652679
 F      0.2832947828    -5.4502047774     3.4808061147
 H      1.3864260163    -4.1610472008     3.5078845443
 F      1.9890464766    -3.4936271921     3.3281956110
          4
Energy: -6.327855414008468 Kcal/mole
 H     -0.3246943102    -5.4440991001     2.8265604709
 F      0.2042895968    -5.3762483950     3.5725238131
 H      1.3573788838    -4.1355542304     3.5035228647
 F      1.9079877824    -3.4316312649     3.2980689782
          4
Energy: -6.3276397731690395 Kcal/mole
 H     -0.3004979779    -5.4619791885     2.7173014972
 F      0.2367295731    -5.4181060592     3.4591577548
 H      1.3767211236    -4.1640554039     3.4479565008
 F      1.9258253344    -3.4493025419     3.2791314079
          4
Energy: -6.325643890705408 Kcal/mole
 H     -0.5432788581    -5.2140388913     3.0091731178
 F      0.2008961639    -5.3880762361     3.5159309883
 H      1.4118988360    -4.2143019035     3.4539657921
 F      1.9626506968    -3.4936147613     3.3191643423
          4
Energy: -6.326927323459813 Kcal/mole
 H     -0.6044370436    -5.1064812941     3.2516454526
 F      0.2260309097    -5.4212766801     3.4799343999
 H      1.4435935537    -4.2431200885     3.4168371307
 F      1.9609693653    -3.4920860231     3.3211339320
          4
Energy: -6.325513992081255 Kcal/mole
 H     -0.6306862079    -5.0642614560     3.5667864798
 F      0.2265336386    -5.3883366761     3.5345624754
 H      1.4404689384    -4.2300478621     3.3636006581
 F      1.9652069943    -3.4832212247     3.2753456507
          4
Energy: -6.325040748100207 Kcal/mole
 H     -0.2575169841    -5.4544264523     2.8618204720
 F      0.1784150726    -5.3068610888     3.6549640313
 H      1.4029032911    -4.1400411721     3.5319809673
 F      1.9986501708    -3.4914332298     3.2764767744
          4
Energy: -6.3252869327945405 Kcal/mole
 H     -0.0504151851    -5.6502090008     2.9250466107
 F      0.1946940725    -5.2934272310     3.7334507303
 H      1.4136794361    -4.1141599821     3.6065781757
 F      2.0649166528    -3.5260510706     3.3402945001
          4
Energy: -6.327195841498508 Kcal/mole
 H      0.3436031969    -6.0176983978     3.2339641842
 F      0.2134447350    -5.2807812640     3.7639650452
 H      1.3708077615    -4.0527690002     3.5597477279
 F      2.0747043544    -3.5134704377     3.3261334155
          4
Energy: -6.326510524962885 Kcal/mole
 H      0.6314494463    -6.0742275014     4.0187027621
 F      0.2285786608    -5.3187954005     3.6902115580
 H      1.3129213823    -4.0453725101     3.3968817526
 F      2.0370633483    -3.4904915289     3.3040673690
          4
Energy: -6.325187887427489 Kcal/mole
 H      0.5538754443    -5.9329975225     4.2978922128
 F      0.2784350078    -5.3448269421     3.6505306954
 H      1.3486940136    -4.0418177359     3.4087036531
 F      2.0319863526    -3.4302646232     3.4105393204
          4
Energy: -6.326766606832223 Kcal/mole
 H      0.1469097479    -5.5812815954     4.4769822335
 F      0.3258430519    -5.3983180054     3.5964163942
 H      1.4522993782    -4.1592644442     3.3548855832
 F      2.0741696861    -3.4881139897     3.4159051502
          4
Energy: -6.326226802455437 Kcal/mole
 H      0.1604756544    -5.6638886808     4.3862554978
 F      0.4038886067    -5.4638784801     3.5250731395
 H      1.4995026920    -4.1802549525     3.3665276423
 F      2.0925570559    -3.4863056384     3.4537622162
          4
Energy: -6.327572065403615 Kcal/mole
 H      0.1986235753    -5.7276965153     4.3584793516
 F      0.3812264668    -5.4564265663     3.5017659813
 H      1.4979831978    -4.1820776866     3.3874492755
 F      2.1076135727    -3.5094143630     3.5169245973
          4
Energy: -6.3277858554822615 Kcal/mole
 H      0.2689514802    -5.7947436782     4.3621921852
 F      0.4257777551    -5.4945949393     3.5100154112
 H      1.5164357770    -4.2034973057     3.3849338054
 F      2.1164592672    -3.5199849733     3.5018598619
          4
Energy: -6.327431621920368 Kcal/mole
 H      0.4244885322    -5.9155803163     4.2998898435
 F      0.4349370677    -5.4867105446     3.4894266753
 H      1.5209951010    -4.1938811812     3.3946379443
 F      2.1517991115    -3.5406305103     3.5220697354
          4
Energy: -6.327659629987522 Kcal/mole
 H     -0.0617524818    -5.4493327375     4.2550413878
 F      0.3729786792    -5.4144632934     3.4483928029
 H      1.5712373605    -4.2174407237     3.3509236825
 F      2.1706100728    -3.5353021645     3.4787060672
          4
Energy: -6.3265437449304045 Kcal/mole
 H     -0.0338902469    -5.5142827677     4.2334575379
 F      0.4352982545    -5.4817052358     3.4462537177
 H      1.6011410360    -4.2609772486     3.3638268551
 F      2.1706049180    -3.5547196948     3.4972440758
          4
Energy: -6.327787776675564 Kcal/mole
 H      0.7023238381    -6.1361886182     4.0791423939
 F      0.4691483531    -5.5100408869     3.4510841070
 H      1.4901880413    -4.1566136381     3.3773961202
 F      2.1353210160    -3.5130439569     3.4799169002
          4
Energy: -6.327055524393927 Kcal/mole
 H      0.2300938468    -5.7833255087     4.2859756275
 F      0.4808233319    -5.5251016823     3.4425634028
 H      1.5504370379    -4.2082981091     3.3505576975
 F      2.1171035404    -3.4989443063     3.4793802790
          4
Energy: -6.327718943734226 Kcal/mole
 H      0.0723354744    -5.6420539038     4.2206147076
 F      0.5552745706    -5.5822007902     3.4433911656
 H      1.6152224942    -4.2568720587     3.3590906219
 F      2.1201642120    -3.5022904869     3.4876577757
          4
Energy: -6.323401445302125 Kcal/mole
 H      0.3817542650    -5.9467809504     4.2140213204
 F      0.6047033133    -5.6097780563     3.3908495454
 H      1.5851111454    -4.2225666492     3.3445164453
 F      2.1038052804    -3.4795813786     3.4852938652
          4
Energy: -6.327396781631535 Kcal/mole
 H      0.7500788423    -6.1444426984     4.1027506812
 F      0.6298164486    -5.6341332845     3.3504141482
 H      1.5585424832    -4.2120546833     3.3021859958
 F      2.1248731415    -3.5063964845     3.4511997260
          4
Energy: -6.327317813967568 Kcal/mole
 H      0.5013658045    -6.0346939728     4.1749468320
 F      0.5482300248    -5.6204812337     3.3581723517
 H      1.5426346420    -4.2541760621     3.3174837961
 F      2.1136691749    -3.5535492821     3.4721792307
          4
Energy: -6.327489628879562 Kcal/mole
 H      0.4509236779    -6.0070898587     4.1617920261
 F      0.5290826537    -5.6050779249     3.3413247327
 H      1.5740401761    -4.2736569083     3.2996703408
 F      2.1593219554    -3.5845246158     3.4527419650
          4
Energy: -6.327114850379985 Kcal/mole
 H      0.6441906712    -6.1515932734     4.0571919771
 F      0.5385953701    -5.6097656267     3.3249615259
 H      1.5467051134    -4.2448034783     3.3221603381
 F      2.1551889601    -3.5811330541     3.4958784329
          4
Energy: -6.326116748599304 Kcal/mole
 H      0.9432052241    -6.3961492222     3.5760981352
 F      0.5300061017    -5.6142560668     3.3336139527
 H      1.5079713086    -4.2342104815     3.3803105995
 F      2.1580227186    -3.5936835782     3.4700181827
          4
Energy: -6.327310159292381 Kcal/mole
 H      0.6340514745    -6.1864245437     4.1107061483
 F      0.5706705930    -5.6376655631     3.3787666392
 H      1.5613231551    -4.2603249858     3.4037982316
 F      2.1554036101    -3.5827661228     3.5737140935
          4
Energy: -6.326326041950892 Kcal/mole
 H      0.5810511928    -6.1034013204     4.1666158387
 F      0.5786211605    -5.6370583351     3.3770543687
 H      1.5879987993    -4.2791687021     3.3825917648
 F      2.1658254928    -3.5928465219     3.5722419094
          4
Energy: -6.325361776510022 Kcal/mole
 H      0.4443911158    -5.9998001134     4.2064455241
 F      0.5390558878    -5.6082737598     3.3826526525
 H      1.5723659296    -4.2616470701     3.3611982889
 F      2.1632036798    -3.5837811521     3.5409134802
          4
Energy: -6.327077641630865 Kcal/mole
 H      0.1570962115    -5.7885950162     4.1586439231
 F      0.5830848510    -5.6478160166     3.3588914912
 H      1.6439578969    -4.3197360666     3.3585010934
 F      2.1555697548    -3.5800884879     3.5375646748
          4
Energy: -6.323981929740626 Kcal/mole
 H      0.0943668825    -5.7282993559     4.1440035892
 F      0.6715222609    -5.7183597211     3.4314856085
 H      1.6919561500    -4.3550026511     3.3789132975
 F      2.1517968384    -3.5765927315     3.5322545459
          4
Energy: -6.326534224592308 Kcal/mole
 H      0.6893507804    -6.1690437381     4.1629807301
 F      0.6131807762    -5.6736757802     3.3950629501
 H      1.6067951134    -4.2927714325     3.3659660845
 F      2.1949959376    -3.6081988274     3.5280436545
          4
Energy: -6.327673799818683 Kcal/mole
 H      0.5444668253    -6.0827109100     4.2337884751
 F      0.6361466184    -5.6900930302     3.4101775135
 H      1.6464570276    -4.3330655083     3.3727332421
 F      2.2158708109    -3.6321881443     3.5321944100
          4
Energy: -6.327199175279816 Kcal/mole
 H      0.7089476347    -6.1897385875     4.2079018478
 F      0.6454677390    -5.7035144776     3.4330177159
 H      1.6226344009    -4.3255912954     3.3895349923
 F      2.2063052445    -3.6341302159     3.5381920535
          4
Energy: -6.326661857227521 Kcal/mole
 H      0.9018070421    -6.3511828326     4.0357575800
 F      0.6325830731    -5.7089105753     3.4391892251
 H      1.5848127388    -4.3096811604     3.4240148980
 F      2.1997120463    -3.6430450514     3.5596030239
          4
Energy: -6.327152247974823 Kcal/mole
 H      0.8250859812    -6.2875369483     4.1231218593
 F      0.6618952878    -5.7243913547     3.4180510558
 H      1.5985223399    -4.3087426217     3.4135253667
 F      2.1862739656    -3.6226046786     3.5705341226
          4
Energy: -6.327262731422138 Kcal/mole
 H      1.0965071220    -6.4525857947     3.8254595578
 F      0.6708226633    -5.7391759516     3.4372223399
 H      1.5650069953    -4.2959416803     3.4656099957
 F      2.1836682746    -3.6264274175     3.5650980524
          4
Energy: -6.327468027066402 Kcal/mole
 H      1.1662963870    -6.4795469594     3.3298167031
 F      0.6570821209    -5.7308050122     3.4746453184
 H      1.5483980524    -4.2887942627     3.5503018729
 F      2.1827710431    -3.6266603992     3.5565192350
          4
Energy: -6.327090871337077 Kcal/mole
 H      1.1409241651    -6.4845745000     3.5979733735
 F      0.6512409725    -5.7239728175     3.4476921323
 H      1.5586697891    -4.2893350994     3.4915483872
 F      2.1885140164    -3.6258105790     3.5541619643
          4
Energy: -6.326395146832738 Kcal/mole
 H      1.1436242065    -6.4844567151     3.4828499880
 F      0.6506807753    -5.7117098287     3.4553177667
 H      1.5563636854    -4.2890270890     3.5169559428
 F      2.1886363499    -3.6258269182     3.5528141522
          4
Energy: -6.3276438616165365 Kcal/mole
 H      1.0814919311    -6.4419101290     3.1546200274
 F      0.6409628196    -5.7110454712     3.4902685846
 H      1.5579531885    -4.2910459039     3.5737850934
 F      2.1885520304    -3.6257198247     3.5497994971
          4
Energy: -6.32780546041613 Kcal/mole
 H      1.1265203982    -6.4412720614     3.0931765905
 F      0.6817344793    -5.7331731628     3.4695413552
 H      1.5764151310    -4.2978241274     3.5685413173
 F      2.1909547732    -3.6177344002     3.5419332141
          4
Energy: -6.327873143715237 Kcal/mole
 H      1.1119573135    -6.4165212903     3.0132905346
 F      0.6851879459    -5.7379350432     3.4585742780
 H      1.5663525455    -4.2946943610     3.5536783157
 F      2.1737049662    -3.6091171732     3.5090021851
          4
Energy: -6.327553027569422 Kcal/mole
 H      1.0800848449    -6.3921356130     2.9526983805
 F      0.6647963009    -5.7284046337     3.4300720416
 H      1.5522718036    -4.2882629943     3.5675811207
 F      2.1642818739    -3.6061511737     3.5350828439
          4
Energy: -6.327658605241368 Kcal/mole
 H      1.1421958306    -6.4243007549     3.0386479983
 F      0.6708596554    -5.7288241417     3.4061306382
 H      1.5473308374    -4.2844991432     3.5435553400
 F      2.1645439807    -3.6063508373     3.5363573560
          4
Energy: -6.326981539334554 Kcal/mole
 H      1.1856799301    -6.5035382974     3.4285950138
 F      0.6765852544    -5.7408554884     3.4337471075
 H      1.5518090883    -4.2877079282     3.5030578719
 F      2.1643064198    -3.6061806187     3.5385056531
          4
Energy: -6.327941035090589 Kcal/mole
 H      1.1865353069    -6.4699684007     3.1868507643
 F      0.6834753801    -5.7441155829     3.4337462826
 H      1.5474008427    -4.2888473095     3.5395585155
 F      2.1622088950    -3.6085187978     3.5468506337
          4
Energy: -6.32548061348939 Kcal/mole
 H      1.1675358262    -6.4335151042     3.0724719459
 F      0.6844832587    -5.7460493461     3.4398138146
 H      1.5429777116    -4.2885878947     3.5245710458
 F      2.1513604985    -3.6043117967     3.4743156344
          4
Energy: -6.3274169480164915 Kcal/mole
 H      1.0254063383    -6.3737129062     2.8832643151
 F      0.6951868706    -5.7513596058     3.4702229786
 H      1.5738616323    -4.3028321087     3.5654581362
 F      2.1602787250    -3.6010263456     3.4985801554
          4
Energy: -6.327700825207671 Kcal/mole
 H      0.8545627673    -6.2354619852     2.7128133942
 F      0.7114608455    -5.7599237933     3.4837052595
 H      1.6098687036    -4.3271420785     3.6011761929
 F      2.1583686330    -3.5997367578     3.4966853951
          4
Energy: -6.327633041156503 Kcal/mole
 H      0.9121966602    -6.2717912197     2.7500390275
 F      0.7084035006    -5.7579966113     3.4817305257
 H      1.5977864338    -4.3190605181     3.5925748763
 F      2.1590095695    -3.6001654659     3.4971416750
          4
Energy: -6.327756883638813 Kcal/mole
 H      1.0389417078    -6.3662702921     2.8822442878
 F      0.7016799687    -5.7529847149     3.4747173421
 H      1.5787518237    -4.3015507874     3.5797931490
 F      2.1614877206    -3.5972520091     3.5071907708
          4
Energy: -6.326712440922108 Kcal/mole
 H      1.1349096464    -6.4510785880     3.0549986992
 F      0.6966337387    -5.7506440677     3.4527356871
 H      1.5719202267    -4.2979172441     3.5563038150
 F      2.1750993688    -3.6083136647     3.5174344735
          4
Energy: -6.327456964340854 Kcal/mole
 H      1.0814300397    -6.4017358235     2.9351857386
 F      0.6994707083    -5.7532615873     3.4590914878
 H      1.5820809243    -4.3069954558     3.5727956291
 F      2.1758980361    -3.6106587734     3.5146109025
          4
Energy: -6.327491619282966 Kcal/mole
 H      1.2017821919    -6.4895712825     3.3807140967
 F      0.6811216329    -5.7353662648     3.4119610727
 H      1.5538546081    -4.2831000950     3.4794179349
 F      2.1773953770    -3.6119263670     3.5195643734
          4
Energy: -6.327476289399954 Kcal/mole
 H      1.2229350416    -6.4909452040     3.3844117438
 F      0.6952226670    -5.7421299683     3.4254530973
 H      1.5592919309    -4.2885980280     3.4888280096
 F      2.1771069395    -3.6116347144     3.5190651906
          4
Energy: -6.32767316094737 Kcal/mole
 H      1.1515827691    -6.4666011118     3.7427136110
 F      0.6990077402    -5.7434213662     3.4064460112
 H      1.5687290668    -4.2921676589     3.4326507099
 F      2.1766063213    -3.6114453537     3.5220452666
          4
Energy: -6.327579914124044 Kcal/mole
 H      0.8969809400    -6.3287016068     4.0860195424
 F      0.7070805718    -5.7566882553     3.3949134899
 H      1.6105447210    -4.3192000518     3.3831741962
 F      2.1743880975    -3.6100113477     3.5246698813
          4
Energy: -6.327383338498748 Kcal/mole
 H      0.8865229731    -6.3082730998     4.1051221117
 F      0.7076353427    -5.7577719404     3.3939001428
 H      1.6126915588    -4.3218084348     3.3783580115
 F      2.1734143999    -3.6114433261     3.5262103291
          4
Energy: -6.327941382913025 Kcal/mole
 H      0.8670353627    -6.3032640133     4.1339029542
 F      0.7314492700    -5.7719399483     3.3989198596
 H      1.6246486454    -4.3308280371     3.3771505860
 F      2.1727801041    -3.6109648570     3.5262743802
          4
Energy: -6.3279606156663135 Kcal/mole
 H      0.9051626793    -6.3186156474     4.1142857100
 F      0.7294267040    -5.7711255796     3.3999605091
 H      1.6186061227    -4.3264223704     3.3782956358
 F      2.1731006459    -3.6111985675     3.5262136380
          4
Energy: -6.327951177040688 Kcal/mole
 H      0.9084631559    -6.3200263619     4.1123803319
 F      0.7292516213    -5.7710507444     3.4000615850
 H      1.6157643412    -4.3250904758     3.3809154318
 F      2.1691173997    -3.6093062964     3.5303891794
          4
Energy: -6.32787695983194 Kcal/mole
 H      0.8608411171    -6.2965700581     4.1398002416
 F      0.7317778604    -5.7722950471     3.3986070221
 H      1.6244627076    -4.3313816208     3.3792560165
 F      2.1686559715    -3.6089725657     3.5304772076
          4
Energy: -6.327933087096426 Kcal/mole
 H      0.8498462073    -6.2851802547     4.1495260038
 F      0.7323611150    -5.7728992499     3.3980910929
 H      1.6256777362    -4.3312201154     3.3742060315
 F      2.1685915170    -3.6089811332     3.5307450976
          4
Energy: -6.327763365818157 Kcal/mole
 H      0.8022672090    -6.2520169934     4.1766992915
 F      0.7348850709    -5.7746584843     3.3966496128
 H      1.6340555500    -4.3371443146     3.3728432367
 F      2.1681470933    -3.6086668681     3.5308173907
          4
Energy: -6.327853332587836 Kcal/mole
 H      0.7902988017    -6.2560629591     4.1751478179
 F      0.7355199672    -5.7744438551     3.3967319149
 H      1.6357419464    -4.3382052437     3.3720494027
 F      2.1680576339    -3.6086105883     3.5308595018
          4
Energy: -6.3279878067153845 Kcal/mole
 H      0.8046362513    -6.2602222401     4.1714052232
 F      0.7347593987    -5.7742232149     3.3969304509
 H      1.6323314486    -4.3358693234     3.3728080874
 F      2.1682385529    -3.6087345035     3.5308192553
          4
Energy: -6.327843328868312 Kcal/mole
 H      0.8272081732    -6.2720105649     4.1614632073
 F      0.7335620104    -5.7735978715     3.3974578519
 H      1.6308336524    -4.3348413211     3.3731687547
 F      2.1683180076    -3.6087890366     3.5308001227
          4
Energy: -6.327953553154032 Kcal/mole
 H      0.7689328832    -6.2364225987     4.1881196909
 F      0.7366533798    -5.7754857309     3.3960437870
 H      1.6366586362    -4.3383111899     3.3694880541
 F      2.1680090056    -3.6086049681     3.5309953754
          4
Energy: -6.327902280569106 Kcal/mole
 H      0.7512756894    -6.2225793799     4.1965136581
 F      0.7375900532    -5.7762200816     3.3955985064
 H      1.6407091482    -4.3413431263     3.3699448153
 F      2.1677941353    -3.6084441309     3.5309711453
          4
Energy: -6.32792598959486 Kcal/mole
 H      0.7463496409    -6.2204766837     4.1977498252
 F      0.7378513687    -5.7763316248     3.3955329306
 H      1.6419127687    -4.3421374019     3.3696272375
 F      2.1677302861    -3.6084019964     3.5309879920
          4
Energy: -6.327993102930407 Kcal/mole
 H      0.7421452559    -6.2195107763     4.1983167110
 F      0.7380744016    -5.7763828640     3.3955028587
 H      1.6422530577    -4.3420483094     3.3681210433
 F      2.1677122345    -3.6084067225     3.5310678922
