          4
Energy: -6.319997540334441 Kcal/mole
 H      1.1135106056    -4.3306146762     2.4108314425
 F      1.4532540235    -3.5015691214     2.6061437001
 H      2.9330979466    -3.5817225978     3.4473706080
 F      3.7139194564    -3.8189098778     3.8656396171
          4
Energy: -6.3147226220693256 Kcal/mole
 H      0.9468995379    -5.0131912585     3.8990081722
 F      1.1692252390    -4.4740306292     3.1913598850
 H      2.7760383635    -3.8887298275     3.1700445797
 F      3.6486335182    -3.6378039125     3.2985081196
          4
Energy: -6.311134381529712 Kcal/mole
 H      1.1961664543    -5.4158060647     3.9170131640
 F      1.3197694668    -4.5497787024     3.6420442510
 H      2.8990662485    -3.9577560251     3.4401228135
 F      3.7930753558    -3.7582405111     3.3973410915
          4
Energy: -6.321759297039705 Kcal/mole
 H      1.4361444533    -3.4876168667     4.1166760217
 F      1.6682230482    -4.3565701935     3.9379341922
 H      3.0575425665    -4.4713892391     2.9579177813
 F      3.7908879537    -4.3212910738     2.4282347781
          4
Energy: -6.315899478370454 Kcal/mole
 H      1.0365627767    -4.9022198224     3.8916124547
 F      1.5145925641    -4.1441672811     3.6973629579
 H      2.8185005100    -4.4693017741     2.6788040664
 F      3.4609190402    -4.8586044771     2.1528469982
          4
Energy: -6.310562748222878 Kcal/mole
 H      2.0502202670    -5.0343736682     4.4466380159
 F      2.0044158597    -4.1985273812     4.0722692930
 H      2.4207063300    -4.2127929140     2.4425184103
 F      2.6389005185    -4.3943973239     1.5705664997
          4
Energy: -6.325005404248316 Kcal/mole
 H      0.5946141707    -4.9346009047     3.2871465038
 F      1.3182054783    -4.6152727721     3.7511876263
 H      2.6440147211    -4.1135036507     2.8147673472
 F      3.2680086998    -3.9048712581     2.1760240190
          4
Energy: -6.314374876613101 Kcal/mole
 H      1.2980736141    -6.0951956413     3.0680611942
 F      1.6789625572    -5.4567021109     3.6048466492
 H      2.6519989785    -4.3910441608     2.6994529093
 F      3.1359939116    -3.9458455008     2.0603628860
          4
Energy: -6.315563640693199 Kcal/mole
 H      1.6576095242    -6.3530551815     3.0391360988
 F      1.8430351699    -5.5625918083     3.4653684129
 H      2.7721735977    -4.4470476418     2.6214958672
 F      3.3000306851    -3.9579928289     2.0530934700
          4
Energy: -6.325248122508867 Kcal/mole
 H      2.9985504724    -5.7694773307     4.1283282024
 F      2.3471726993    -5.2399362380     3.7592994394
 H      2.9618012757    -4.1170219254     2.6446956673
 F      3.4758397307    -3.5995419491     2.0889367799
          4
Energy: -6.316559063694399 Kcal/mole
 H      1.7820694448    -4.4381684684     4.3347097481
 F      2.1402327813    -4.8626348824     3.6050274283
 H      3.1097407220    -3.9720355353     2.5300347765
 F      3.5864290641    -3.3658455371     2.0338584867
          4
Energy: -6.3133028109933775 Kcal/mole
 H      1.1304571590    -4.6407453088     3.5088065936
 F      1.4759293863    -3.7916799749     3.5338265622
 H      2.8777691755    -3.4236872586     2.6172390568
 F      3.6185008933    -3.3937605503     2.0775077215
          4
Energy: -6.3229799840445935 Kcal/mole
 H      1.3444626153    -4.2740871881     3.7471132121
 F      2.1485091125    -4.7086056911     3.8218922265
 H      3.3359733063    -4.2283428780     2.6945058919
 F      3.8326109270    -3.8312487602     2.0337817926
          4
Energy: -6.317678060624075 Kcal/mole
 H      1.2788322843    -5.5867726581     3.0831121570
 F      1.8078632797    -4.9723059020     3.5114179024
 H      3.2262320621    -4.4357951616     2.7114638201
 F      3.9281119221    -4.2647751892     2.1466578081
          4
Energy: -6.3098489505835005 Kcal/mole
 H      0.8523032352    -4.4711450915     1.6759959001
 F      1.3834236416    -4.8379315486     2.3273543335
 H      2.8454622747    -3.9659525757     2.5989339736
 F      3.5371847424    -3.3639533272     2.6013696482
          4
Energy: -6.322169874273584 Kcal/mole
 H      1.3040708931    -5.7195147600     2.2253180962
 F      2.0645778858    -5.3188020930     1.9060259534
 H      2.8058712930    -4.1875726876     2.9179498988
 F      3.0867851921    -3.5965688714     3.5603601031
          4
Energy: -6.300097491018107 Kcal/mole
 H      1.6317663404    -5.1873315923     0.9167426319
 F      2.3549735034    -5.4279599646     1.4266037755
 H      2.7488195369    -4.1877165962     2.5223393220
 F      2.7865310056    -3.3923517536     2.9771597398
          4
Energy: -6.321558542907724 Kcal/mole
 H      2.1963599244    -5.3566225153     0.7005812497
 F      1.5343136837    -5.0123372107     1.2335459804
 H      2.0205241801    -4.1526216539     2.6291953694
 F      2.4374361041    -3.7279669019     3.3268641943
          4
Energy: -6.326614196441994 Kcal/mole
 H      1.1503867499    -5.1128635423     0.8507327686
 F      1.7020109065    -5.5117493105     1.4651348632
 H      1.9188125621    -4.6779333404     2.9258785695
 F      1.9349062620    -4.1045333160     3.6413101908
          4
Energy: -6.326414256656221 Kcal/mole
 H      0.4765942632    -5.4476563431     1.2445374787
 F      1.3533871044    -5.1807746374     1.2744952597
 H      1.7525441186    -4.1488617918     2.5661830748
 F      1.7873842861    -3.6217076301     3.3157053577
          4
Energy: -6.308299455526139 Kcal/mole
 H      1.3894248494    -4.5192246216     0.3508945560
 F      0.9331326746    -4.9257958430     1.0345511167
 H      1.4194354193    -4.2732753355     2.5289499794
 F      1.8165552248    -3.8212929125     3.2209736419
          4
Energy: -6.318513514613073 Kcal/mole
 H     -0.3106885093    -4.6117984310     1.2615558563
 F      0.5043398343    -5.0281542919     1.3187012526
 H      1.3777145009    -4.6342756371     2.7112535727
 F      1.6834606363    -4.2809306599     3.5002755165
          4
Energy: -6.32712320707958 Kcal/mole
 H      0.4118130149    -3.3998430387     0.9434686185
 F      0.1793085553    -4.1925077906     1.3416058656
 H      1.0642143185    -4.6105556288     2.7246215801
 F      1.6293765642    -4.6749166132     3.4438839104
          4
Energy: -6.325188604196455 Kcal/mole
 H      0.0778669832    -4.5473425518     0.8640814219
 F      0.3183926849    -3.9047878033     1.4724890008
 H      1.5973064028    -4.3662884943     2.4682826677
 F      2.2858593589    -4.7806900939     2.9099331415
          4
Energy: -6.321375292049936 Kcal/mole
 H     -0.6730867074    -4.7416493380     1.4599540880
 F      0.1144973701    -4.3921963953     1.1461341367
 H      1.4492275926    -4.9580680874     2.0241857809
 F      2.0402790070    -5.3579705052     2.6000549343
          4
Energy: -6.327328944130045 Kcal/mole
 H     -0.4337990816    -4.4672601918     2.0009266191
 F      0.1806325396    -4.1681419988     1.3894602755
 H      1.7953374018    -4.3458724867     1.8582662478
 F      2.5991966875    -4.5102654951     2.2677466352
          4
Energy: -6.327280377498653 Kcal/mole
 H     -0.1429652667    -3.6808335377     1.5838309003
 F      0.3221635908    -4.3295696496     1.1325154862
 H      1.8659650478    -4.6676296645     1.7467931671
 F      2.6643081399    -4.7153856476     2.1954095660
          4
Energy: -6.31913973573802 Kcal/mole
 H      0.2153882028    -5.3546094375     1.6669370479
 F      0.4009332674    -4.4599719130     1.7449481290
 H      2.0394792425    -4.1005707413     1.5254497879
 F      2.9406683533    -4.1218377658     1.3572389077
          4
Energy: -6.325039242363346 Kcal/mole
 H     -0.0155788645    -3.8899541197     2.3770317478
 F      0.2186845645    -3.9232619797     1.4910857945
 H      1.8819626963    -3.9609938078     1.1529897167
 F      2.7988856435    -3.9596067023     1.1411835816
          4
Energy: -6.3242048294770825 Kcal/mole
 H      0.2151885184    -5.0125245521     1.9207148906
 F      0.2635309140    -4.2583899617     1.4012603378
 H      1.8223133564    -3.7694737639     0.9316234410
 F      2.7216568857    -3.6584048952     0.7911459603
          4
Energy: -6.321935838975662 Kcal/mole
 H      0.3802088059    -5.3394925708     1.8568624767
 F      0.3656831164    -4.6928813404     1.2068071551
 H      1.9113731530    -4.0808863872     0.8079796228
 F      2.8069848205    -3.8981678481     0.7346128973
          4
Energy: -6.319936572296115 Kcal/mole
 H      0.2867534400    -5.7356096537     0.8595995111
 F      0.4896098477    -5.0796238997     1.4673996168
 H      1.9826753503    -4.3562209591     1.1537417692
 F      2.8003769534    -4.1111317384     0.8188024283
          4
Energy: -6.323737555832679 Kcal/mole
 H      0.6638441136    -6.0490184336     2.0454142259
 F      0.5620955748    -5.2994676606     1.5270418949
 H      1.9711276346    -4.3937067744     1.1994517248
 F      2.8098076700    -4.0331316456     1.1129047738
          4
Energy: -6.316460714702259 Kcal/mole
 H      0.9646604290    -6.6235126260     1.2174871524
 F      0.8161883368    -5.7205772810     1.1578817783
 H      2.2441024329    -4.7825730453     1.1087488435
 F      3.0882047553    -4.4242998152     1.1042143166
          4
Energy: -6.323535163306815 Kcal/mole
 H      0.5727644119    -6.3449539260     0.3622050872
 F      0.7701334270    -5.8763491058     1.1253197538
 H      2.1763342105    -4.9334685719     1.0162624526
 F      2.9342575652    -4.4868760649     0.7574259768
          4
Energy: -6.3251607902190585 Kcal/mole
 H      0.1998715668    -5.3453437982     1.9264142490
 F      0.8079512891    -5.9587849291     1.6184888842
 H      2.3447223507    -5.3086252379     1.3526282875
 F      3.0900547838    -4.7819677593     1.2631829718
          4
Energy: -6.324616442310344 Kcal/mole
 H     -0.0694752544    -5.4960313044     1.6164985491
 F      0.6262026432    -6.0457186525     1.8505179543
 H      2.1470198453    -5.3148710057     1.7851861190
 F      2.8671575972    -4.7557608506     1.6867663403
          4
Energy: -6.323234621060919 Kcal/mole
 H     -0.0890359757    -5.2718077748     1.6715910579
 F      0.5635855454    -5.9019394716     1.8054125611
 H      2.1389228077    -5.3016637495     1.6547940239
 F      2.9123143375    -4.8281740406     1.5185514562
          4
Energy: -6.322512951978069 Kcal/mole
 H      0.0990893796    -6.2100279240     1.6751846309
 F      0.7456959980    -5.9134662602     2.2538382930
 H      2.1183559793    -5.1831836493     1.5687019943
 F      2.7844225350    -4.8421200449     1.0386831633
          4
Energy: -6.322292069103355 Kcal/mole
 H      0.5478671651    -6.6330510213     1.5518437490
 F      0.7410047382    -5.9052751668     2.0752261937
 H      2.0214959945    -4.8965970956     1.5619650579
 F      2.7180950653    -4.4761003212     1.1390925035
          4
Energy: -6.320707112691821 Kcal/mole
 H      1.2752727074    -7.1651448353     2.1915159378
 F      1.1463877062    -6.2645719842     2.3066080585
 H      2.2351911622    -5.2097592240     1.5286739541
 F      2.8814538467    -4.7881231975     1.0332381826
          4
Energy: -6.326520812377623 Kcal/mole
 H      1.4666180684    -6.9676729160     2.7427969435
 F      1.1305742458    -6.2835180748     2.2329972745
 H      2.2931714008    -5.4125547154     1.3595533414
 F      3.0449494401    -5.0508684644     0.9788936043
          4
Energy: -6.326507543398577 Kcal/mole
 H      0.9954569625    -5.4058355458     3.2276992151
 F      1.4516261889    -6.0714805148     2.7921358878
 H      2.4235726359    -5.5419741513     1.5099799559
 F      2.8914706563    -5.0999073058     0.8568816888
          4
Energy: -6.319594811893353 Kcal/mole
 H      1.1777682799    -5.6210334318     3.4700919890
 F      1.7452948002    -6.1739579826     3.0084892486
 H      2.6216253920    -5.4945581690     1.7083310124
 F      2.9999170830    -4.9618204471     1.0649221873
          4
Energy: -6.318903193515837 Kcal/mole
 H      0.6742937800    -5.6519767088     2.8088648355
 F      1.5324387243    -5.9469294467     2.9410735227
 H      2.6556805241    -5.2884154286     1.8401185382
 F      3.1125318806    -4.8673584289     1.1656655442
          4
Energy: -6.320978367996986 Kcal/mole
 H      1.1253700155    -5.3603761436     3.4992520332
 F      1.5658766168    -6.0417529986     3.0719716619
 H      2.7560900864    -5.5070474850     2.0003810343
 F      3.3357814686    -5.0188467508     1.4841379282
          4
Energy: -6.326739830593169 Kcal/mole
 H      0.6840817542    -5.8959195705     2.8212851863
 F      1.5197407481    -6.2119652545     3.0278721450
 H      2.7711049371    -5.7037421140     2.0050361470
 F      3.3262063668    -5.3458903825     1.3688808664
          4
Energy: -6.317346036805702 Kcal/mole
 H      0.8866001930    -5.7228621745     3.2396999244
 F      1.4866436479    -6.3302657847     2.9051887788
 H      2.6274556062    -5.7134737635     1.8320082169
 F      3.1770844533    -5.2535231916     1.2599569938
          4
Energy: -6.324979229223288 Kcal/mole
 H      0.5508341953    -5.9652992486     3.0336783142
 F      1.3712886739    -6.3613716043     2.9294183620
 H      2.4506233021    -5.5354535159     1.9203233407
 F      2.9042942164    -4.9566208177     1.3725785012
          4
Energy: -6.3250354112911396 Kcal/mole
 H      0.4706768126    -6.0373968791     2.7470444619
 F      1.3193206342    -6.2486208305     3.0228652487
 H      2.5483149240    -5.4104385283     2.2183940153
 F      3.0654786541    -4.8603857544     1.6979397692
          4
Energy: -6.32591304867492 Kcal/mole
 H      0.3656339718    -5.8455835719     2.6031692995
 F      1.1891869416    -6.1726141006     2.8391789162
 H      2.5408197241    -5.3787571315     2.1929768895
 F      3.1542557655    -4.8445876855     1.7695997219
          4
Energy: -6.32656593525553 Kcal/mole
 H      0.3964289338    -5.6392770785     2.7501788136
 F      1.1692972509    -6.0760055761     2.9800304697
 H      2.5961726257    -5.3838721057     2.3578527841
 F      3.2497154021    -4.8869018469     1.9494517541
          4
Energy: -6.3247355430423795 Kcal/mole
 H      0.4611413931    -5.4390727770     3.2089431161
 F      1.1310211701    -6.0420804864     3.0400295674
 H      2.5248235552    -5.3411311433     2.4055253656
 F      3.1901613188    -4.8024480631     2.0768382812
          4
Energy: -6.327434061821407 Kcal/mole
 H      0.8555507165    -5.6731266740     3.7451606768
 F      1.1233534364    -6.0568542352     2.9565391821
 H      2.5174067852    -5.3696687507     2.2819208797
 F      3.2696185936    -4.8880085221     2.0743881847
          4
Energy: -6.327802370231495 Kcal/mole
 H      1.2796113936    -6.6188154295     3.6982369749
 F      1.1030467849    -6.0036004092     3.0415601764
 H      2.4612540828    -5.2272334159     2.3860794626
 F      3.2886543858    -4.9111994922     2.1485498902
          4
Energy: -6.327459306050798 Kcal/mole
 H      1.4170635261    -6.7486325908     3.5737927175
 F      1.1477899577    -6.1161880185     2.9668375228
 H      2.3944662949    -5.1787615941     2.2947431772
 F      3.1777679610    -4.7797693477     2.0337207888
          4
Energy: -6.3245106034095215 Kcal/mole
 H      1.5095902765    -6.9975359628     3.2224853626
 F      1.1901540854    -6.1817626407     2.9516285613
 H      2.3533152286    -5.0745160123     2.3954045282
 F      3.1080241533    -4.6149432146     2.1502590965
          4
Energy: -6.326987118846432 Kcal/mole
 H      1.5189451100    -7.0039799649     3.1784828166
 F      1.1865405381    -6.1857319580     2.9317716500
 H      2.3441563167    -5.0367481289     2.4586850862
 F      3.0905094000    -4.5557603366     2.2295632439
          4
Energy: -6.325999011899739 Kcal/mole
 H      1.2681498275    -7.0410982217     2.5647280074
 F      1.1984886636    -6.2255598594     2.9781690575
 H      2.3289832099    -5.0492448935     2.5085533742
 F      2.9924852466    -4.5325977370     2.1428625718
          4
Energy: -6.327491953509934 Kcal/mole
 H      1.6131505436    -7.1154549060     2.8732132095
 F      1.2467117400    -6.2785125111     2.9515651774
 H      2.2373380629    -4.9927854952     2.4558055438
 F      2.8900529547    -4.4256707963     2.1504644423
          4
Energy: -6.322639380347368 Kcal/mole
 H      1.6478350523    -7.0375508665     2.9945474898
 F      1.2210667005    -6.2334839468     2.8839393413
 H      2.2378035221    -4.9663455290     2.4066449681
 F      2.9057810179    -4.3891436264     2.1585864495
          4
Energy: -6.325823108946963 Kcal/mole
 H      1.5461196726    -7.1113992644     2.6225044109
 F      1.2245796340    -6.2746118264     2.8156048697
 H      2.2570319556    -4.9767415652     2.4547564756
 F      2.9173104933    -4.3960838633     2.1944530262
          4
Energy: -6.327112134209813 Kcal/mole
 H      1.1150527768    -6.8803478749     2.2247384439
 F      1.2266193191    -6.2625925366     2.8931845888
 H      2.3387656207    -5.0299233431     2.5620629707
 F      2.9596265597    -4.4418914804     2.2309448303
          4
Energy: -6.327590482337371 Kcal/mole
 H      1.1103037418    -6.9039229304     2.2480577814
 F      1.1623677377    -6.2330140346     2.8710020758
 H      2.3458783203    -5.0615078186     2.5405827237
 F      3.0163085947    -4.5314820248     2.2081900266
          4
Energy: -6.322791880612101 Kcal/mole
 H      1.3325931480    -7.1127849262     2.4177193482
 F      1.1850906610    -6.2989707948     2.8137478520
 H      2.3426134091    -5.1077981224     2.5043446915
 F      3.0394013291    -4.5677748205     2.2518562206
          4
Energy: -6.325991019847038 Kcal/mole
 H      1.4409439071    -7.1661616825     2.5799256358
 F      1.1740637736    -6.3241922417     2.8264037383
 H      2.3215348838    -5.0987680447     2.5415698074
 F      3.0452044381    -4.5758373208     2.3324410571
          4
Energy: -6.327613282525874 Kcal/mole
 H      1.4682248300    -7.1908632742     2.7515629077
 F      1.1635210602    -6.3286624500     2.8197857145
 H      2.3160281744    -5.1188592295     2.5270672940
 F      3.0532144368    -4.6044276549     2.3459442156
          4
Energy: -6.326132071927873 Kcal/mole
 H      1.0582775373    -6.8553870282     2.1020731636
 F      1.1852678167    -6.3464586897     2.8542396446
 H      2.3740320125    -5.1527975647     2.6580511822
 F      3.0340843236    -4.5829627123     2.3743115345
          4
Energy: -6.325442097256882 Kcal/mole
 H      0.9289339406    -6.7846715003     2.0959423152
 F      1.1393493727    -6.2947107519     2.8419669870
 H      2.3683559941    -5.1555550092     2.6391500637
 F      3.0392277842    -4.5902344103     2.3722555869
          4
Energy: -6.327332918423224 Kcal/mole
 H      1.1802998340    -6.9867744897     2.2076152222
 F      1.1456498739    -6.3091110967     2.8244301913
 H      2.3289631755    -5.1107402194     2.6105822600
 F      3.0249075641    -4.5718572809     2.3533749765
          4
Energy: -6.327367619204608 Kcal/mole
 H      1.3039541897    -7.0914112692     2.3761712179
 F      1.1390902961    -6.3035603573     2.8154886852
 H      2.3126326231    -5.0981825139     2.5910563177
 F      3.0257738622    -4.5725234382     2.3544107826
          4
Energy: -6.327400348172716 Kcal/mole
 H      1.3334174571    -7.1008969475     2.4355254726
 F      1.1411640133    -6.2953654496     2.8292850684
 H      2.2963542432    -5.0713960082     2.5856656592
 F      3.0088118425    -4.5401493327     2.3596786268
          4
Energy: -6.3273626312703755 Kcal/mole
 H      1.4393665327    -7.1437370361     2.6593449369
 F      1.1355436597    -6.2930928819     2.8174119631
 H      2.2686310129    -5.0658160601     2.5502906428
 F      2.9971206576    -4.5430899135     2.3580688616
          4
Energy: -6.327551643743561 Kcal/mole
 H      1.4418063756    -7.1409610708     2.6494661929
 F      1.1354142317    -6.2932401405     2.8179360076
 H      2.2682149445    -5.0656363956     2.5491985588
 F      2.9971427291    -4.5430994443     2.3581267942
          4
Energy: -6.327990212603083 Kcal/mole
 H      1.4502319249    -7.1423584760     2.6739176510
 F      1.1349672757    -6.2931660114     2.8166389143
 H      2.2655659780    -5.0596776529     2.5425421949
 F      2.9919959590    -4.5336381492     2.3515685762
