          4
Energy: -6.323240742793189 Kcal/mole
 H      1.6442426398    -7.2688249337     2.7772814170
 F      1.2526958094    -6.4537174012     2.6250323118
 H      2.2784530045    -5.0975975320     2.6316571729
 F      2.9450403385    -4.4689653296     2.6686960749
          4
Energy: -6.318190116171081 Kcal/mole
 H      1.4294650952    -7.1491403249     3.4000362994
 F      1.4961397538    -6.7034854238     2.6013904461
 H      2.3713213097    -5.2481286452     2.6487767880
 F      2.8605398376    -4.5114839162     2.8914880882
          4
Energy: -6.31763967968709 Kcal/mole
 H      2.0942186370    -7.3801770738     2.3488342334
 F      1.6089414793    -6.6510252956     2.6203720108
 H      2.4566281758    -5.2010352691     2.7155298430
 F      3.0534843039    -4.5055662114     2.6843120262
          4
Energy: -6.32728658460303 Kcal/mole
 H      1.8831164579    -6.8964990786     1.5923940827
 F      1.6711654691    -6.5789474027     2.4261366758
 H      2.4333011982    -5.1177711338     2.8352951726
 F      2.9209605792    -4.3421895107     2.8746712312
          4
Energy: -6.320329413657191 Kcal/mole
 H      0.8299139038    -6.5488868522     2.4156264390
 F      1.7323959180    -6.6404603209     2.5499004646
 H      2.5467089218    -5.1904900431     2.8232462069
 F      2.8015942349    -4.3222327922     2.9717447707
          4
Energy: -6.323802240670943 Kcal/mole
 H      0.8750309728    -6.6235047340     1.7395897074
 F      1.3596806534    -6.5727258650     2.5163941832
 H      2.2524501348    -5.1610956486     2.7669451577
 F      2.6719534826    -4.3461076369     2.7404785353
          4
Energy: -6.326216944603971 Kcal/mole
 H      0.3198348076    -6.3027664252     2.5093304848
 F      1.2093366624    -6.5026866646     2.6078563608
 H      2.2140007789    -5.1386083119     2.7721794494
 F      2.5843287742    -4.3021441556     2.8360064900
          4
Energy: -6.324132062266472 Kcal/mole
 H      1.4112313257    -7.0048283430     2.0896498249
 F      1.0716715792    -6.3681053673     2.6554872846
 H      2.0369999581    -4.9656535571     2.7751123408
 F      2.6805922929    -4.3158189944     2.7088330247
          4
Energy: -6.322919947484138 Kcal/mole
 H      1.3690474326    -7.0726860060     2.9827585110
 F      1.0155122029    -6.3660262177     2.5174266026
 H      1.9799520535    -4.9753168420     2.5526723606
 F      2.5999436807    -4.3132011670     2.6872168329
          4
Energy: -6.317942884329739 Kcal/mole
 H      1.1488908501    -7.0025936878     3.0167358841
 F      0.8110704305    -6.2037562595     2.7190361573
 H      1.8828942357    -4.8837446541     2.7053655539
 F      2.5624505476    -4.2687708645     2.7353565039
          4
Energy: -6.3247654013334795 Kcal/mole
 H      1.2311801715    -7.0158933708     2.5662693488
 F      0.9739649484    -6.3126920906     3.0956437800
 H      1.9505172720    -4.9368742871     3.0002572767
 F      2.5708421778    -4.2790433646     2.8474682441
          4
Energy: -6.325169716643643 Kcal/mole
 H      1.3857348254    -7.0053968282     3.3525435069
 F      0.9503289491    -6.2923100995     2.9746307653
 H      1.8930339101    -4.9014789589     2.7524509938
 F      2.5478522082    -4.2603409716     2.7201388017
          4
Energy: -6.32449686330699 Kcal/mole
 H      1.0608685499    -6.6152432288     3.9217827630
 F      0.8452924721    -6.1623841196     3.1541014607
 H      2.0026966418    -5.0460199918     2.6571342053
 F      2.7200282059    -4.4893836088     2.5287583347
          4
Energy: -6.327244241920766 Kcal/mole
 H      0.0971685736    -5.8174907483     3.3814539186
 F      0.9445837936    -6.1677807883     3.3728904582
 H      2.1489989562    -5.1341289638     2.7631715026
 F      2.6633501456    -4.4609353228     2.4122553080
          4
Energy: -6.326306193943537 Kcal/mole
 H      0.4642773716    -5.5656790505     4.1237758873
 F      0.7573356052    -5.8924774311     3.3186618022
 H      2.1119509964    -5.0724033618     2.7182948146
 F      2.8308321339    -4.5273494087     2.5539321110
          4
Energy: -6.32444103643661 Kcal/mole
 H      0.3592990149    -5.4025080264     4.0139395319
 F      0.7160650843    -5.7985508280     3.2677779736
 H      2.0909385293    -5.0042436867     2.6594278717
 F      2.7992850164    -4.4445925868     2.4984157586
          4
Energy: -6.321866687805937 Kcal/mole
 H      0.2721994719    -5.4278006939     4.1371871922
 F      0.7606371697    -5.8266452875     3.4714240170
 H      2.0234290835    -4.8293643007     2.9145173515
 F      2.6361737170    -4.1638639296     2.7643765171
          4
Energy: -6.3217155746377784 Kcal/mole
 H      0.3999763919    -5.5956922544     4.2895133735
 F      0.7639250006    -5.7928127612     3.4712384100
 H      2.0518756703    -4.8017733449     3.0385201829
 F      2.7338527299    -4.1943560756     2.9558125575
          4
Energy: -6.327084036113092 Kcal/mole
 H     -0.0633123208    -5.4489974226     3.7424363586
 F      0.7134073917    -5.8032078749     3.4075775172
 H      1.9218981166    -4.6629932606     3.0409717226
 F      2.4403503120    -3.9195670274     2.9016384645
          4
Energy: -6.323210651451745 Kcal/mole
 H     -0.0372809028    -5.7555105106     2.5908869742
 F      0.6044613956    -5.7793980390     3.2454747899
 H      1.8952612580    -4.6860628055     3.1012690173
 F      2.5251246012    -4.0552468585     2.8862517856
          4
Energy: -6.322207283775185 Kcal/mole
 H     -0.2704900615    -5.5159663786     2.7701350883
 F      0.4536330614    -5.6048935901     3.3256768545
 H      1.7317027629    -4.5004315838     3.1541745263
 F      2.3290170089    -3.8354174622     2.9495751384
          4
Energy: -6.321644843378181 Kcal/mole
 H      0.2982601312    -6.0423649082     2.5778005189
 F      0.6002417664    -5.6905658539     3.3689601218
 H      1.7003281749    -4.3986256711     3.2559460126
 F      2.2522865479    -3.7079943140     3.0125137159
          4
Energy: -6.326215023958184 Kcal/mole
 H     -0.2776345276    -5.4566006122     3.2519550591
 F      0.5933155834    -5.6202476332     3.4876552005
 H      1.7003653940    -4.4006291857     3.0602769412
 F      2.1497369457    -3.6644446303     2.7488503704
          4
Energy: -6.326890626265083 Kcal/mole
 H      0.9432366292    -5.9250349572     4.4512988668
 F      0.6523124208    -5.6750422545     3.6183788505
 H      1.5093996502    -4.3691105232     2.9660971992
 F      2.0743557142    -3.6707200605     2.7818028496
          4
Energy: -6.327067349839012 Kcal/mole
 H      0.9470138232    -6.2093173147     4.0263813705
 F      0.5224906301    -5.6648362527     3.4228837056
 H      1.4103967238    -4.3203639203     2.8974911648
 F      2.0263967571    -3.6630680444     2.7260411997
          4
Energy: -6.325155299390701 Kcal/mole
 H     -0.0859597200    -5.3008511719     4.1057133127
 F      0.6385732420    -5.6482794297     3.6638597254
 H      1.6209506597    -4.4803535182     2.9447518287
 F      2.0408044928    -3.7277035225     2.6314951562
          4
Energy: -6.323914240560384 Kcal/mole
 H     -0.2026418915    -5.2881677786     3.9239313771
 F      0.6335781507    -5.6007326483     3.7143407204
 H      1.7088175655    -4.4704451480     3.0284803043
 F      2.1332786940    -3.7436184636     2.6645507490
          4
Energy: -6.327116891662058 Kcal/mole
 H     -0.0472447090    -5.8328877505     3.2500502104
 F      0.7600985099    -5.7047531563     3.6655829438
 H      1.6902482693    -4.4478689236     3.0026349753
 F      2.0363858917    -3.7480607159     2.5216503406
          4
Energy: -6.323726321394474 Kcal/mole
 H      0.4760119237    -6.2724750873     3.0585084255
 F      0.6804407252    -5.6165852213     3.6658850375
 H      1.5650387010    -4.3243123370     3.0101774864
 F      2.0189506045    -3.7092265211     2.5036970595
          4
Energy: -6.325903404116104 Kcal/mole
 H     -0.0412507430    -5.8253685582     3.2601050103
 F      0.6997799401    -5.5715957994     3.7369298350
 H      1.5463606649    -4.2875951834     3.0326043520
 F      1.8605065233    -3.6044265417     2.5077405729
          4
Energy: -6.323564959069756 Kcal/mole
 H     -0.1507978713    -5.6828957699     3.4837089823
 F      0.7484073255    -5.6460403990     3.6596654988
 H      1.5626789475    -4.2590755601     3.0915530877
 F      1.8450075620    -3.4612464933     2.7384973790
          4
Energy: -6.325290743596497 Kcal/mole
 H     -0.1515085101    -5.7435478188     3.2569093319
 F      0.6938334115    -5.6410976543     3.5971886281
 H      1.4771620202    -4.2124230536     3.0974299592
 F      1.7214243911    -3.4105428195     2.7256598899
          4
Energy: -6.326803868014565 Kcal/mole
 H     -0.1864284072    -5.4887094048     3.9569305874
 F      0.6197497134    -5.6204099069     3.5402522756
 H      1.3750740789    -4.1915466835     3.0410574463
 F      1.6288928870    -3.3343150886     2.8370500801
          4
Energy: -6.32371706205663 Kcal/mole
 H     -0.2156421269    -5.7532195437     3.0478256519
 F      0.5466463449    -5.6115965217     3.5374665462
 H      1.4026106111    -4.1862152675     3.1848388520
 F      1.7161952755    -3.3778914506     2.8862316429
          4
Energy: -6.325664211889261 Kcal/mole
 H     -0.1709709640    -5.6582086847     2.9687201079
 F      0.4844952225    -5.5408361323     3.5991776896
 H      1.4190853956    -4.1306767113     3.3853116060
 F      1.8003741548    -3.3408418023     3.1176015042
          4
Energy: -6.32673144980572 Kcal/mole
 H      0.9174205173    -6.2882274535     3.1466698664
 F      0.5457093328    -5.5763882774     3.5893941404
 H      1.3109119352    -4.0805863952     3.3343777581
 F      1.8394332181    -3.3767945831     3.0770232581
          4
Energy: -6.3243622066319745 Kcal/mole
 H      1.2132249738    -6.3040808305     3.3451372545
 F      0.6326246847    -5.6188686449     3.5302765670
 H      1.3459821179    -4.0931986530     3.3676727837
 F      1.8869941833    -3.3680286406     3.2182626166
          4
Energy: -6.326886497022429 Kcal/mole
 H      0.2692112621    -5.8242866769     2.6645959671
 F      0.4600214730    -5.5302148058     3.5119460708
 H      1.4716516947    -4.1631755705     3.5679653691
 F      2.0135106371    -3.4401684433     3.4113174182
          4
Energy: -6.325928892654133 Kcal/mole
 H      0.3549515336    -5.8699435062     2.6098235735
 F      0.3488524760    -5.4524349720     3.4262416193
 H      1.3984467786    -4.1228910599     3.5811433631
 F      1.9975180807    -3.4345053557     3.4909896210
          4
Energy: -6.323963787617799 Kcal/mole
 H     -0.4534449305    -5.2417460383     3.1674167007
 F      0.4288041283    -5.4917601652     3.1717218892
 H      1.5463778044    -4.2308692658     3.4243004276
 F      2.0128802966    -3.4558770238     3.5748044130
          4
Energy: -6.325268900970684 Kcal/mole
 H     -0.4912013677    -5.1077098923     3.0991900043
 F      0.3647315931    -5.4366683675     3.0918355393
 H      1.5371347247    -4.2405671511     3.3841524105
 F      2.0090984984    -3.4722470593     3.5509559863
          4
Energy: -6.325612347347828 Kcal/mole
 H     -0.3061928788    -5.2189902023     2.6523460211
 F      0.3936448241    -5.4729121613     3.1877335707
 H      1.5596181484    -4.2886774758     3.4885175885
 F      2.0843023552    -3.5397353708     3.5569369324
          4
Energy: -6.326536880678873 Kcal/mole
 H     -0.2623297082    -5.2635405956     2.5158339981
 F      0.3526817051    -5.4644515216     3.1656684087
 H      1.5357198655    -4.2877197505     3.4285988347
 F      2.0874821995    -3.5553266510     3.4355035098
          4
Energy: -6.326522591198739 Kcal/mole
 H      0.6209319772    -6.0585053606     2.6864617875
 F      0.3583845427    -5.4549213519     3.3249319818
 H      1.4415774439    -4.1787196505     3.5682788281
 F      2.1371940400    -3.5812296283     3.5717751970
          4
Energy: -6.325749388102167 Kcal/mole
 H      0.5421781922    -6.1543174690     3.6029852962
 F      0.3032827052    -5.3692063014     3.1938173591
 H      1.4228789977    -4.1184410193     3.4296635571
 F      2.1323608775    -3.5869008926     3.6641620773
          4
Energy: -6.326701721769098 Kcal/mole
 H     -0.0826460740    -5.6061275466     3.8918841390
 F      0.3561425885    -5.3832960102     3.1181273194
 H      1.5409805717    -4.1920882155     3.3292712095
 F      2.1220366191    -3.5516036677     3.6342997553
          4
Energy: -6.321738563400629 Kcal/mole
 H     -0.4665198892    -5.0767966764     3.5359854922
 F      0.3453648944    -5.4020699065     3.2604325501
 H      1.6276810647    -4.3007069127     3.4579867971
 F      2.1955034764    -3.6067220558     3.6499548342
          4
Energy: -6.3273111675334235 Kcal/mole
 H     -0.4208099034    -5.0907715528     3.0679929023
 F      0.3906758821    -5.4690712248     3.2661574250
 H      1.6538085939    -4.3618106046     3.5214843176
 F      2.2002324021    -3.6316809075     3.6175085198
          4
Energy: -6.32687233145441 Kcal/mole
 H     -0.4473603763    -5.0871911218     3.0735948211
 F      0.3720337066    -5.4532526228     3.2619596648
 H      1.6199816723    -4.3358839664     3.5329811712
 F      2.1730670171    -3.6128489575     3.6434618363
          4
Energy: -6.326469643736232 Kcal/mole
 H      0.1153121559    -5.5459811684     2.4385269691
 F      0.3500001991    -5.4458067769     3.3193082210
 H      1.5761219618    -4.3123494459     3.6379061695
 F      2.2380206449    -3.6779875678     3.6188236929
          4
Energy: -6.325474583381492 Kcal/mole
 H      0.1452132823    -5.5372552465     2.4112652624
 F      0.3619568076    -5.4713911983     3.2998445618
 H      1.5920532523    -4.3464514065     3.6414122302
 F      2.2518410947    -3.7100176643     3.6185847257
          4
Energy: -6.327177330686823 Kcal/mole
 H     -0.4263532895    -5.0873372300     2.9803703514
 F      0.3446754632    -5.4544636002     3.3144689760
 H      1.6409770528    -4.3760402237     3.5003812717
 F      2.2318523166    -3.6755857488     3.5338320007
          4
Energy: -6.327512384454565 Kcal/mole
 H     -0.4343969326    -5.2167895980     3.0985703732
 F      0.3614262588    -5.5272053282     3.4320317991
 H      1.6223966249    -4.3947901429     3.5044448021
 F      2.1796156930    -3.6672213159     3.4722033371
          4
Energy: -6.324827561425252 Kcal/mole
 H     -0.1309602707    -5.5040395329     2.7184906179
 F      0.3660674705    -5.5199482251     3.4889445996
 H      1.5545705883    -4.3176275717     3.5772948063
 F      2.1376897649    -3.6169795034     3.4775285278
          4
Energy: -6.32513495143553 Kcal/mole
 H      0.2590179402    -5.8894666667     2.6783230081
 F      0.4263452724    -5.5527349943     3.5146855758
 H      1.5493174072    -4.2956095075     3.5799761299
 F      2.1758758045    -3.6421723862     3.4339161994
          4
Energy: -6.32739641613972 Kcal/mole
 H     -0.1997692399    -5.4898536683     2.9134978828
 F      0.4891370153    -5.6145290596     3.5057421047
 H      1.6606786482    -4.3809828605     3.5176986907
 F      2.1842173266    -3.6390903240     3.3896685517
          4
Energy: -6.3269831014754345 Kcal/mole
 H     -0.3071449659    -5.3922953717     3.1688867790
 F      0.5245176372    -5.6464782712     3.4597774257
 H      1.6729217775    -4.3962926033     3.4465381378
 F      2.1545869138    -3.6196920047     3.3705170433
          4
Energy: -6.326808205596251 Kcal/mole
 H     -0.1903375717    -5.5277086262     2.9082606172
 F      0.5444616783    -5.6671227316     3.4388478103
 H      1.6508115509    -4.3751324591     3.4808659053
 F      2.1242522356    -3.5945903404     3.3942811547
          4
Energy: -6.327125248817708 Kcal/mole
 H     -0.2975169513    -5.4571966520     3.5513430516
 F      0.5798463325    -5.7101779366     3.4669443682
 H      1.6708079554    -4.4126322661     3.4052290263
 F      2.0947286761    -3.5996732984     3.3885575156
          4
Energy: -6.326701635139443 Kcal/mole
 H     -0.2979329943    -5.4575116767     3.7925560746
 F      0.5448702624    -5.6858359933     3.5124852319
 H      1.6233861742    -4.3890561452     3.4387918894
 F      2.0640988127    -3.5850544381     3.4543683224
          4
Energy: -6.325981780140694 Kcal/mole
 H     -0.1561378194    -5.5968093827     2.9657482086
 F      0.5190861899    -5.6664138230     3.5822843058
 H      1.5818319103    -4.3552499829     3.5675440903
 F      2.0499102877    -3.5806023018     3.4201921215
          4
Energy: -6.326818191068753 Kcal/mole
 H     -0.2870807401    -5.5130575806     3.7919945959
 F      0.5704988507    -5.7170755883     3.5393626543
 H      1.6429395988    -4.3960813229     3.5015926736
 F      2.0725270719    -3.5863853275     3.5287219574
          4
Energy: -6.327940366720611 Kcal/mole
 H     -0.2880173520    -5.4711977223     3.7404628578
 F      0.5768063833    -5.6957851117     3.5342362558
 H      1.6525576487    -4.3863093029     3.4753872297
 F      2.0832808290    -3.5768232393     3.4853298004
          4
Energy: -6.326523901169537 Kcal/mole
 H     -0.3232581627    -5.4635685475     3.4735973579
 F      0.5653397699    -5.6837678936     3.5264647603
 H      1.6454274241    -4.3820159997     3.5128928037
 F      2.0836590709    -3.5770509891     3.4833402164
          4
Energy: -6.325671503476315 Kcal/mole
 H     -0.2254629398    -5.5342141080     3.1445810102
 F      0.5523262568    -5.6594899583     3.6138772141
 H      1.6386727248    -4.3640205479     3.5996273692
 F      2.0962409099    -3.5781838183     3.4813861307
          4
Energy: -6.327534973759498 Kcal/mole
 H     -0.2063889422    -5.5295666781     3.0423503889
 F      0.5079454513    -5.6364348048     3.6073234660
 H      1.6192079636    -4.3563278507     3.5819226936
 F      2.0962597382    -3.5863103191     3.4391515295
          4
Energy: -6.327711231486944 Kcal/mole
 H     -0.2273764682    -5.5321132951     3.0490856833
 F      0.4919401060    -5.6289151897     3.6095337713
 H      1.6046839604    -4.3457285023     3.5873902759
 F      2.0929095626    -3.5816399682     3.4506661979
          4
Energy: -6.327601215643085 Kcal/mole
 H     -0.2862983772    -5.4689940622     3.0882115892
 F      0.4640402142    -5.6089751189     3.5964303434
 H      1.5924925145    -4.3437007993     3.6010353273
 F      2.0831692235    -3.5771222061     3.4893096472
          4
Energy: -6.326706005773758 Kcal/mole
 H     -0.3359109712    -5.4089660466     3.1578136000
 F      0.4492666411    -5.6118768289     3.5858466964
 H      1.5971549713    -4.3607024034     3.5893798373
 F      2.0765368174    -3.5859867864     3.4849875082
          4
Energy: -6.327613013575387 Kcal/mole
 H     -0.2570855179    -5.4816201798     3.0377656432
 F      0.4518495449    -5.6078520511     3.6055381253
 H      1.5796763980    -4.3468979812     3.6074183104
 F      2.0774640153    -3.5867190791     3.4840306089
          4
Energy: -6.3276364757432475 Kcal/mole
 H     -0.3958300794    -5.3650195000     3.3500461513
 F      0.4476213546    -5.6058301903     3.6174202149
 H      1.5967910715    -4.3595156090     3.5767183322
 F      2.0767509595    -3.5833928539     3.4863802174
          4
Energy: -6.327349999629007 Kcal/mole
 H     -0.4137781057    -5.3298192813     3.6911891875
 F      0.4549065945    -5.6153014208     3.6220817381
 H      1.6031158508    -4.3649992997     3.5386641813
 F      2.0667355660    -3.5747283565     3.5010132044
          4
Energy: -6.327764003107632 Kcal/mole
 H     -0.3324926702    -5.3822980419     4.0257702811
 F      0.4449421919    -5.6080140992     3.5950310367
 H      1.5757854548    -4.3532468751     3.4677347872
 F      2.0640959604    -3.5773511219     3.4884140131
          4
Energy: -6.327396005540834 Kcal/mole
 H     -0.2651607672    -5.4111050350     4.1399108233
 F      0.4413703900    -5.6064859548     3.5889761447
 H      1.5731452212    -4.3508094494     3.4484371748
 F      2.0642360187    -3.5774804217     3.4894377068
          4
Energy: -6.327466524477643 Kcal/mole
 H     -0.1830819877    -5.4924377635     4.2294779925
 F      0.4371121891    -5.6066152654     3.5637365403
 H      1.5591322006    -4.3415882917     3.4169857744
 F      2.0630479574    -3.5784397259     3.4845296611
          4
Energy: -6.327840580803752 Kcal/mole
 H     -0.1132315653    -5.5492643044     4.2945353965
 F      0.4334067856    -5.6036007487     3.5602853953
 H      1.5440077244    -4.3303174898     3.4127487675
 F      2.0683524421    -3.5821330408     3.4913085997
          4
Energy: -6.327905984369977 Kcal/mole
 H     -0.1412551122    -5.5273246819     4.2707341406
 F      0.4348933700    -5.6047645950     3.5615479969
 H      1.5506900215    -4.3351427168     3.4145800893
 F      2.0679979617    -3.5818770737     3.4912114523
          4
Energy: -6.3279425290257905 Kcal/mole
 H     -0.1010835863    -5.5665168287     4.3044661366
 F      0.4327623633    -5.6026855422     3.5597585925
 H      1.5413821983    -4.3283623234     3.4117309864
 F      2.0684917202    -3.5822367579     3.4913625906
          4
Energy: -6.327958231833634 Kcal/mole
 H     -0.0689594180    -5.5855025004     4.3270708020
 F      0.4310582504    -5.6016783962     3.5585594672
 H      1.5391592261    -4.3262623547     3.4069805498
 F      2.0686096438    -3.5823481564     3.4916145903
          4
Energy: -6.327992648795828 Kcal/mole
 H     -0.0741734442    -5.5854616939     4.3236508935
 F      0.4313348425    -5.6016805609     3.5587408855
 H      1.5387214135    -4.3261111824     3.4084045818
 F      2.0686328687    -3.5823561757     3.4915390487
