          4
Energy: -6.308767740965209 Kcal/mole
 H      0.7984726759     3.9697625887     0.3855604669
 F      0.7249218389     3.5532287047    -0.4280603279
 H      0.2488122300     1.9384529559    -0.4434038079
 F     -0.0543803427     1.0874011245    -0.2863240695
          4
Energy: -6.323511493243188 Kcal/mole
 H      1.5573245460     3.5771248096     0.5493574656
 F      0.8741382958     4.1386331347     0.7919557928
 H     -0.6418914461     3.7653338454     0.1551571571
 F     -1.3874301504     3.4451467796    -0.2720913459
          4
Energy: -6.322577309478675 Kcal/mole
 H     -0.1070025732     3.5693343245     1.7875181405
 F      0.1053548197     3.8689831845     0.9472777592
 H      1.3338042559     5.0375912623     0.9321977436
 F      2.0035943307     5.6437844489     1.0896781435
          4
Energy: -6.294795710768767 Kcal/mole
 H      0.3379360381     2.7906864673    -0.2372781487
 F      0.6324032353     2.2819077245     0.4665131988
 H      2.3553106230     2.1996060258     0.4962769899
 F      3.2543669449     2.3107476318     0.3540297631
          4
Energy: -6.281254286083367 Kcal/mole
 H      1.2957226350     5.3867783466     0.2011163952
 F      1.3521491408     4.5386312105    -0.1429061114
 H      2.2840299298     3.2851806660     0.5571726767
 F      2.8030367778     2.6797426379     1.0099040384
          4
Energy: -6.296602857944208 Kcal/mole
 H      1.2837510680     4.5981951177     2.6078565744
 F      1.9605058168     3.9800719292     2.5792955202
 H      1.8129695913     2.5339210613     1.7288246952
 F      1.6162063579     1.7865256635     1.2352931872
          4
Energy: -6.299084268437696 Kcal/mole
 H      3.9410264919     5.2405949668     1.7902424201
 F      3.3029011798     4.5906867640     1.8965646374
 H      3.2894983047     3.1601729230     0.9608534063
 F      3.4009366507     2.4367509638     0.4084666180
          4
Energy: -6.30349791606352 Kcal/mole
 H      4.8881965762     3.6611851724     1.9900103869
 F      4.4005888845     2.9404453859     2.2792540546
 H      3.4060048502     2.1182417967     1.1474400699
 F      2.9272731044     1.7586992527     0.4528653262
          4
Energy: -6.27722323722503 Kcal/mole
 H      3.9728783783     3.4829227677     2.2805396584
 F      3.2225972247     3.0035592550     2.5000341077
 H      2.8383666993     1.5591203811     1.6368317415
 F      2.7078503981     0.8306054509     1.0954257093
          4
Energy: -6.3146414058415985 Kcal/mole
 H      4.7250560167     2.6014231902     3.3651968335
 F      4.5484497118     2.4420555310     2.4795890410
 H      4.8804134580     0.8407481885     2.0756321095
 F      5.0911246609    -0.0514784649     2.0551043759
          4
Energy: -6.298736587305314 Kcal/mole
 H      6.8245517774     0.9400999689     1.4314984158
 F      6.8628999903     0.9338466752     2.3476748785
 H      6.6380106801    -0.5901921021     3.0393147849
 F      6.5311325888    -1.4636731131     3.2971849014
          4
Energy: -6.297072958878005 Kcal/mole
 H      5.5741973334     1.0628190508     3.0688750964
 F      4.7776327607     1.0353755405     3.5223293225
 H      3.7723796565    -0.3229015580     3.1814172775
 F      3.3381709994    -1.0672223813     2.8678278102
          4
Energy: -6.323486519024186 Kcal/mole
 H      4.1748620723     1.4343893760     2.8949114152
 F      4.9370991753     1.1684566243     3.3298405708
 H      4.8337065297    -0.2577966697     4.2312103986
 F      4.6159100744    -1.0258387718     4.6823922173
          4
Energy: -6.322098068552236 Kcal/mole
 H      5.5909185070     0.2481000064     3.3348673346
 F      5.5451781607     0.5614746127     4.1954445693
 H      4.7360802847    -0.4084560779     5.3076262604
 F      4.2686521667    -1.0353094863     5.7866406223
          4
Energy: -6.30608474594078 Kcal/mole
 H      6.3132291626    -0.4447574791     2.7344575895
 F      6.0625241447     0.3166612227     3.1797412682
 H      5.6017406323    -0.0718348178     4.7799895859
 F      5.4222511256    -0.4880909203     5.5771115176
          4
Energy: -6.2952223813674095 Kcal/mole
 H      4.6411311992     0.2063416993     3.3075835252
 F      4.8559774113    -0.6102341676     3.6652620944
 H      5.3623951164    -0.4899682862     5.2911691011
 F      5.5614127927    -0.1688862300     6.1267451166
          4
Energy: -6.319495383643812 Kcal/mole
 H      6.9428747364     0.6326461761     3.8938954243
 F      6.2365129861     1.0410914710     4.3123622914
 H      4.8603308154     0.1176685087     4.6170840296
 F      4.1887027814    -0.4995301615     4.7112678146
          4
Energy: -6.310490410622265 Kcal/mole
 H      5.3826512420     0.9610416644     3.2156732927
 F      4.9040734793     1.4169134083     3.8513094136
 H      4.3741929652     0.6038270334     5.2299831171
 F      4.1502779732     0.0570771792     5.9312788274
          4
Energy: -6.314894445381924 Kcal/mole
 H      4.5675010493     1.3625781794     2.6684517182
 F      4.0761150194     2.0051264047     3.1003782719
 H      3.6600065770     1.5312002240     4.6890682145
 F      3.5205252879     1.1100880133     5.4916256742
          4
Energy: -6.321815475424614 Kcal/mole
 H      4.4974039644     0.3348738495     3.3233876904
 F      3.7385011679     0.8229661059     3.4868547962
 H      3.9269444692     2.1333592464     4.5628886894
 F      4.2028264478     2.7642268391     5.1685158142
          4
Energy: -6.295015013260013 Kcal/mole
 H      4.2866311901    -0.0610054976     5.5597001305
 F      5.0810113577    -0.0488610753     5.1017681898
 H      5.9213513866     1.4591847213     5.1621419545
 F      6.1900052160     2.3302724473     5.2617426249
          4
Energy: -6.312905226127043 Kcal/mole
 H      3.5392164123     1.0761714981     5.3144113613
 F      4.0889595462     0.3804425802     5.0806748438
 H      5.6273813579     0.8913049355     4.5314992470
 F      6.3924496827     1.3438081324     4.3061099945
          4
Energy: -6.304019108696423 Kcal/mole
 H      4.7652995488     0.3683430847     5.4651192470
 F      4.6451087598     1.1998569249     5.0976578098
 H      6.0915328228     2.0581539257     4.6877154029
 F      6.9469663120     2.3611226564     4.5560624732
          4
Energy: -6.314527323791538 Kcal/mole
 H      4.0643252938     0.9448379541     2.6708693151
 F      4.1314219706     1.2531524825     3.5318740697
 H      5.3153656560     2.4584235313     3.6541200870
 F      5.9692440016     3.0904853305     3.5365191045
          4
Energy: -6.289519448350006 Kcal/mole
 H      4.0777318119     0.7151684142     5.2721539116
 F      4.6730033385     0.3349252483     4.6873839189
 H      6.2718806836     0.9895668829     4.6299864156
 F      7.0525544716     1.4684712852     4.6756811648
          4
Energy: -6.283920528572423 Kcal/mole
 H      6.7920765552    -1.0630964722     4.3831877518
 F      6.3549652123    -0.4684402468     4.9274364520
 H      6.7051908774     1.1884986413     4.8378176850
 F      7.0486880431     2.0310391092     4.7236938178
          4
Energy: -6.3076304296333205 Kcal/mole
 H      6.0844891029    -0.5662306025     3.2300937166
 F      6.7187788837    -0.6295449535     3.8893029148
 H      6.5847289442     0.4931667173     5.1284971240
 F      6.3428008021     1.1373063899     5.7346685982
          4
Energy: -6.321022495222678 Kcal/mole
 H      7.4752567915    -1.2702014055     4.3435763346
 F      7.1777334962    -0.4033132104     4.3731355293
 H      6.0144555571    -0.1815111590     5.5827118338
 F      5.4248197295    -0.2529037388     6.2813688958
          4
Energy: -6.31252581363907 Kcal/mole
 H      6.9385599519     0.4812429395     4.6073783339
 F      7.2319354361    -0.3549502907     4.8431763556
 H      6.1249915139    -1.5244043302     5.3637549245
 F      5.4154710563    -2.0515650996     5.6078271342
          4
Energy: -6.320172329160812 Kcal/mole
 H      6.8825759103     0.0250064636     6.5457840878
 F      6.4199456429    -0.1998985699     5.7866530308
 H      5.8609814339    -1.7821980120     5.6799578095
 F      5.6352850311    -2.6653586842     5.7798445492
          4
Energy: -6.318048362840784 Kcal/mole
 H      6.0166714579    -1.9096323791     3.0767889514
 F      5.6608828266    -1.5538874884     3.8434368645
 H      5.8743281281    -2.4994718903     5.2500838256
 F      6.1022295158    -3.1407876242     5.8646276295
          4
Energy: -6.319731697199757 Kcal/mole
 H      5.9885661775    -1.2239974560     3.2225898956
 F      6.1377821962    -0.5354029357     3.8094980369
 H      6.4719953539    -1.0476143785     5.3802168938
 F      6.6035826117    -1.5045945804     6.1642723055
          4
Energy: -6.301008880716381 Kcal/mole
 H      6.6043107629    -0.0903790532     3.5320028990
 F      7.2184934643     0.0437472586     4.1995946468
 H      7.1500518192    -0.7983703836     5.6673452703
 F      6.9816819568    -1.3236869800     6.3998635724
          4
Energy: -6.303269005592142 Kcal/mole
 H      6.3937184023    -2.1428313427     3.8102445283
 F      6.4020293564    -1.2489416980     4.0146491055
 H      5.9031759728    -0.8086697323     5.5824286820
 F      5.6695982007    -0.7463682880     6.4669901294
          4
Energy: -6.3192568846915265 Kcal/mole
 H      5.8401806154    -1.6532067192     3.2290828942
 F      6.1873531142    -0.9841167803     3.7512695559
 H      6.0858270793    -1.2449961699     5.4440511407
 F      5.9382000532    -1.5383165533     6.3002394458
          4
Energy: -6.31931596402967 Kcal/mole
 H      6.9657613730    -1.8335908939     3.5105363304
 F      6.2323939635    -1.2875394697     3.4406143395
 H      5.6018252215    -0.7038579545     4.8923434655
 F      5.3709501339    -0.5038648028     5.7569754295
          4
Energy: -6.3022139958504795 Kcal/mole
 H      6.6150247368    -0.6507312243     3.4733598779
 F      6.6376373522    -1.1930967525     4.2124250329
 H      5.4514425877    -0.7979978986     5.3598565596
 F      4.7898924009    -0.4651963912     5.9006740030
          4
Energy: -6.289732704891037 Kcal/mole
 H      5.4849515280    -1.0720892135     3.1998024340
 F      6.0612654646    -0.9758751774     3.9065514034
 H      5.3364999474    -0.8232180928     5.4139355126
 F      4.7629840820    -0.8149355372     6.1294073509
          4
Energy: -6.316791451417714 Kcal/mole
 H      4.9117579253    -3.0362825370     4.1312805707
 F      5.4774619375    -2.7964642633     4.8119825365
 H      4.9807387926    -1.4272599822     5.7093496772
 F      4.5813709921    -0.6739134590     6.0467861538
          4
Energy: -6.287314033774521 Kcal/mole
 H      2.9638707797    -2.9311073684     4.6224667740
 F      3.7997738289    -2.8071004391     4.2664086696
 H      4.5165575421    -1.2543327589     4.3641493603
 F      4.7556689381    -0.3926344542     4.5671044589
          4
Energy: -6.323261784159399 Kcal/mole
 H      3.7352204507    -2.9904010904     3.8531105607
 F      3.2822526008    -2.3748278508     4.3598439360
 H      4.2808406339    -1.2472163690     5.1460957351
 F      4.9456302676    -0.7142666979     5.4850771371
          4
Energy: -6.324934616747953 Kcal/mole
 H      2.9016763949    -0.9824298480     3.9570327469
 F      2.6463171517    -1.0178952960     4.8370457348
 H      3.9244477511    -1.2092048487     5.9414913494
 F      4.7123728068    -1.3237123666     6.3964101719
          4
Energy: -6.315848490852318 Kcal/mole
 H      3.5328992602    -0.3575145189     3.7244848334
 F      2.9297349247    -0.7853597821     4.2667303638
 H      3.5880281519    -1.4501409768     5.6701312176
 F      4.1053195807    -1.7808902366     6.3512358386
          4
Energy: -6.309475818995111 Kcal/mole
 H      1.7188615624    -1.0390374192     4.3721489408
 F      1.5858472890    -1.8307715243     4.8152666564
 H      2.8129138664    -2.3121203909     5.8399485427
 F      3.5606482384    -2.4564980806     6.3507688552
          4
Energy: -6.31398763783983 Kcal/mole
 H      1.3957520659    -3.2078989968     3.4454405885
 F      1.3183375787    -2.6774246448     4.1894116625
 H      1.9848864991    -3.4421916188     5.5311556369
 F      2.3978410261    -4.0095119878     6.1214988909
          4
Energy: -6.325004372008095 Kcal/mole
 H      0.5496022910    -2.0229327015     4.2813604313
 F      1.2441729473    -2.4908708038     3.9078707584
 H      2.1614020382    -3.3990850335     5.0155571445
 F      2.5360439494    -3.8343501606     5.7304534359
          4
Energy: -6.31203630877917 Kcal/mole
 H      0.4181203020    -4.1532043054     3.1106392335
 F      0.7691172642    -3.3963504565     3.4912471472
 H      1.8337710248    -3.6634029744     4.7736953556
 F      2.4163974718    -3.9628640760     5.4153794461
          4
Energy: -6.319480053272002 Kcal/mole
 H      0.8315715132    -2.6104638458     3.0183553545
 F      0.8627940779    -3.5065317877     3.2106478272
 H      2.1647667960    -4.0326026251     4.1964296408
 F      2.9032031330    -4.1333453961     4.7307064140
          4
Energy: -6.324086958933265 Kcal/mole
 H      0.9194344999    -3.2262065482     2.7296947703
 F      0.7772393197    -3.8300992666     3.4049599888
 H      2.0421504500    -4.0471192684     4.5134455032
 F      2.7992324729    -4.0473218233     5.0308580752
          4
Energy: -6.322903887069344 Kcal/mole
 H     -0.0393612102    -3.4718758559     3.9477359637
 F      0.7274357194    -3.2062809039     3.5206870318
 H      2.1175765368    -3.8745217183     4.2327893084
 F      2.7284053302    -4.3263364393     4.7462487936
          4
Energy: -6.323763417639498 Kcal/mole
 H      0.3424885988    -2.7324877192     3.3007776228
 F      0.9752711937    -3.2811040783     2.9272869562
 H      2.1347023701    -3.9244034753     3.9957078472
 F      2.6736491768    -4.1938641066     4.6869504296
          4
Energy: -6.304056492089728 Kcal/mole
 H      0.7510115943    -2.4242010245     3.2365165533
 F      0.9289745268    -3.2462840727     2.8712801141
 H      2.0359277494    -4.1136306349     3.8236928485
 F      2.6138369631    -4.4567199118     4.4475515576
          4
Energy: -6.32507963688272 Kcal/mole
 H      1.5657243143    -2.3933017418     2.5101552686
 F      1.0284749106    -2.8708283471     3.0795588334
 H      1.8981399288    -3.8268090159     4.1804943818
 F      2.5320574683    -4.2542125614     4.6868181541
          4
Energy: -6.324524524321816 Kcal/mole
 H      1.4278935843    -2.0999699180     3.0509807605
 F      0.9790456195    -2.8815939082     3.2197659570
 H      1.9085985163    -4.0604718277     4.0190475497
 F      2.5592882999    -4.5639650799     4.4239998314
          4
Energy: -6.320781570020074 Kcal/mole
 H      0.9555825827    -2.7211103207     2.8367165250
 F      0.8126424312    -3.5308732416     3.2425996670
 H      2.0672999878    -4.1877002087     4.1726455639
 F      2.8227347098    -4.4208593652     4.6372359089
          4
Energy: -6.322448941934567 Kcal/mole
 H      1.2818347784    -3.4360876119     2.3242944195
 F      1.0034157243    -3.5142280579     3.1945046820
 H      2.2315948969    -4.0475762154     4.2190601220
 F      3.0114864594    -4.3258755313     4.6130241325
          4
Energy: -6.314798449180614 Kcal/mole
 H      1.7502348715    -3.3501278658     2.0794825143
 F      1.3313162376    -3.6927812173     2.8197425084
 H      2.3660711759    -4.2116933066     4.0891895919
 F      3.0742310406    -4.4106538562     4.6367416952
          4
Energy: -6.316345405973607 Kcal/mole
 H      1.8652956137    -3.7624405963     1.8949911385
 F      1.4461891925    -3.6883793832     2.7072434050
 H      2.3333301801    -4.1994217160     4.0787419249
 F      2.9302046552    -4.5421697644     4.6846739643
          4
Energy: -6.3243961756525096 Kcal/mole
 H      1.3560520824    -3.0060686873     2.6773480826
 F      1.1790021808    -3.8759050407     2.9074068805
 H      2.2450181561    -4.4771931092     4.0719898967
 F      2.9091716594    -4.6324222104     4.6849279443
          4
Energy: -6.321432379223893 Kcal/mole
 H      0.8293765437    -4.5390405056     2.4159046075
 F      0.9793341261    -3.9014588513     3.0576922340
 H      2.0782879566    -4.2987397675     4.2942294681
 F      2.6778460938    -4.6914062026     4.8662715215
          4
Energy: -6.32748661154892 Kcal/mole
 H      0.8892139383    -4.3672197700     2.4461313118
 F      1.1010922781    -3.6975681762     3.0356763160
 H      2.1152579292    -4.1771176587     4.3030181521
 F      2.6615920492    -4.6027675613     4.9040424359
          4
Energy: -6.32708878458152 Kcal/mole
 H      0.3546219108    -4.1066616955     2.9754580104
 F      1.1283062885    -3.6152283140     3.0036487049
 H      2.1910517211    -4.0557230647     4.2429864482
 F      2.6299069276    -4.4195658043     4.9612576843
          4
Energy: -6.327471430422918 Kcal/mole
 H      0.9535463460    -4.1415095015     2.3667311878
 F      0.9494763972    -3.5896819535     3.0990963924
 H      2.0534357805    -4.0051383159     4.3220409945
 F      2.6898541116    -4.3740699245     4.8695354474
          4
Energy: -6.326071131588833 Kcal/mole
 H      0.6734404720    -4.4981127033     2.6595202529
 F      0.8572770589    -3.7566616833     3.1668105980
 H      1.9900562522    -3.9916413469     4.4005690688
 F      2.6200486174    -4.2828680690     4.9998900312
          4
Energy: -6.327215429317675 Kcal/mole
 H      0.8273302759    -4.3639592518     2.5423907952
 F      0.8337999312    -3.7039424583     3.1789636315
 H      1.9462523804    -3.9388529382     4.4426703831
 F      2.5945597026    -4.2249328100     5.0246883578
          4
Energy: -6.326703164468768 Kcal/mole
 H      0.4878802002    -4.4114896184     2.8401890270
 F      0.8087785689    -3.6373514358     3.2125105428
 H      1.9633274775    -3.8662715111     4.4273289822
 F      2.5723213965    -4.1678907301     5.0429922452
          4
Energy: -6.326252172598231 Kcal/mole
 H      0.7717349950    -4.3080904317     2.5708355899
 F      0.8055101449    -3.6441796607     3.2024768865
 H      1.9067455024    -3.8974214256     4.4719035628
 F      2.5380729858    -4.2048322183     5.0616604730
          4
Energy: -6.32626351421294 Kcal/mole
 H      0.9466537111    -4.1515879497     2.4542384424
 F      0.7962311112    -3.6524817558     3.2086620957
 H      1.8875804449    -3.9441185692     4.4823263210
 F      2.5530232495    -4.2163544322     5.0515033661
          4
Energy: -6.32756280771946 Kcal/mole
 H      1.1351377326    -3.8476728883     2.3690346026
 F      0.8063648577    -3.6683601334     3.2060796030
 H      1.8602883423    -3.9924273904     4.4950258893
 F      2.5469055755    -4.2182562709     5.0593370550
          4
Energy: -6.327977740407221 Kcal/mole
 H      1.1501385550    -3.8402612175     2.3735276585
 F      0.8055690987    -3.6687533054     3.2058412568
 H      1.8585276887    -3.9922521479     4.4961600147
 F      2.5460308928    -4.2180852806     5.0593897551
