          5
Energy: -0.4682304336251889 Kcal/mole
 Kr    -5.0512748406     5.5701520977    -0.6818027108
 Kr    -1.1202100337    -1.6095938639     4.9912150307
 Kr    -1.5363737174    -3.9642361673     1.2838925078
 Kr     3.1152446226     1.2221060234     0.3175890977
 Kr     3.6960073892    -1.3336433900    -2.2682548801
          5
Energy: -0.863563692435981 Kcal/mole
 Kr    -1.0804843608    -4.7623814988     2.3776136427
 Kr     3.8224624426    -1.9072390659    -0.2879068206
 Kr     7.1643311333     5.2184887542    -7.3614430262
 Kr     4.8004899222    -1.6544936219    -4.3048498034
 Kr     1.1996440318    -0.3268733908     2.4942985416
          5
Energy: -2.0609383404285855 Kcal/mole
 Kr    -4.8126656005     6.2280551042    -2.5652444409
 Kr    -0.1104152057     4.5568936366    -4.5087869391
 Kr    -0.1126792943     1.1651374769    -6.9497964155
 Kr    -3.9195032429     3.7688842602    -7.0084641064
 Kr    -2.8789201171     1.5586118105    -3.6483076645
          5
Energy: -2.3994319017800527 Kcal/mole
 Kr    -3.6747459795    -3.9102429068    -0.7529282422
 Kr    -5.2575735011    -6.9054845087     2.3247901874
 Kr     0.1750024241    -3.0711399447    -0.6625417476
 Kr    -2.5341735816    -3.4195846618     3.1824751937
 Kr    -0.5957623330    -6.4482971010     1.4210089005
          5
Energy: -2.239257486879108 Kcal/mole
 Kr    -2.1970319644    -2.3435915619     5.5860370745
 Kr    -3.3375166601     2.1380021214     6.9900438304
 Kr    -3.2948218523     0.1246174197     2.3857616497
 Kr    -6.1620459651    -0.6387581638     6.4850709030
 Kr     0.1760829391     1.2070730027     5.2860090971
          5
Energy: -2.458824356479015 Kcal/mole
 Kr    -2.0208497013    -3.0215163972     1.4324446884
 Kr     0.0474262672    -0.3523475111     4.0054307304
 Kr    -3.0015194012    -2.2725005678     5.7606216642
 Kr    -4.2155732590    -0.1338165375     2.4625420742
 Kr    -3.5993115532     1.9999180073     5.6349380681
          5
Energy: -2.4914625281672316 Kcal/mole
 Kr    -2.3223040863     1.7157545363    -2.9904315938
 Kr    -2.1689817179    -1.2500736450    -0.1291447397
 Kr    -3.7842389290     2.0272412498     0.6653370185
 Kr     1.8084406340    -0.6748590360    -1.7118521976
 Kr     0.2205990679     2.3414564529     0.4240719554
          5
Energy: -2.757545167814205 Kcal/mole
 Kr     0.8811337673     4.6027539401     2.0618376871
 Kr    -2.6744282475     2.7082077321     0.1412770681
 Kr    -3.0904383564     5.8903136103     2.4582890306
 Kr     0.6057830629     0.6213690629     1.4699052812
 Kr    -1.8657667813     2.2841062746     4.3164192612
          5
Energy: -2.8298252577625918 Kcal/mole
 Kr    -0.4640796136     5.7680236654     5.2898051526
 Kr    -0.4373195672     5.5441080991     1.3616581153
 Kr    -3.9973928257     6.1403992854     3.2295512219
 Kr     1.9048975620     3.0622863076     3.7255857275
 Kr    -2.1772800168     2.5721531077     3.3338502521
          5
Energy: -2.885476631534785 Kcal/mole
 Kr    -0.5382095932     5.7659666328     5.3560104506
 Kr    -0.3221789908     5.5951218748     1.2964580829
 Kr    -3.8805526094     6.2581615321     3.1038441171
 Kr     1.9078220576     3.0690996616     3.5569670554
 Kr    -2.1276990669     2.5886434251     3.3525446910
