          5
Energy: -2.8854885965953176 Kcal/mole
 Kr     2.4936134997    -2.6880730820     3.1986019778
 Kr     1.3284062510    -5.9202907976     5.3539452207
 Kr    -1.1168739739    -2.6859150131     5.0526089628
 Kr     5.1879982987    -4.6854323380     5.4957760693
 Kr     2.2863606251    -2.4379367611     7.2559883056
