          5
Energy: -2.885476631534785 Kcal/mole
 Kr    -0.5382095932     5.7659666328     5.3560104506
 Kr    -0.3221789908     5.5951218748     1.2964580829
 Kr    -3.8805526094     6.2581615321     3.1038441171
 Kr     1.9078220576     3.0690996616     3.5569670554
 Kr    -2.1276990669     2.5886434251     3.3525446910
