          5
Energy: -0.04559522176347018 Kcal/mole
 Kr     1.0527289248     6.2534985018    -3.8174309356
 Kr    -1.9422336314    -7.0136657579    -0.0474486956
 Kr    -1.8239185318    -3.3946260628    -6.3803176721
 Kr    -2.0507609726     5.3440494854     5.8614913451
 Kr     4.9842222700     3.2805441301     4.9153262404
          5
Energy: -0.4167622304362811 Kcal/mole
 Kr     0.2644190889     5.1111598028    -6.6060288523
 Kr     1.3764663351    -1.8953301502    -0.9443564659
 Kr    -0.0766778705    -7.1739605425     7.3123573887
 Kr    -1.1478108742     0.6232152598    -5.7275849384
 Kr     6.3154406144    -0.8127994812    -1.5464060491
          5
Energy: -0.43442118429952326 Kcal/mole
 Kr     0.9164767404    -2.8653819359     4.7040707304
 Kr     6.4658440512     4.3036961796    -2.5686114724
 Kr     4.6220101732     4.1083470309     5.2740926007
 Kr     1.5904231273     3.3917863907     2.6452584976
 Kr    -3.2907938398    -1.9723116065    -0.6197485710
          5
Energy: -0.5488373869522192 Kcal/mole
 Kr     6.1082279355     2.6850372410    -4.4959562508
 Kr    -2.1114314391     0.2899412307     0.0350521136
 Kr     5.5558919467     5.5271106697    -7.2851846410
 Kr    -3.4515610687    -0.8472888222    -5.6706782162
 Kr    -7.3883825149     1.5642488266    -3.1062464879
          5
Energy: -0.3221153972891975 Kcal/mole
 Kr    -3.1585507282    -6.1684232719    -0.1073343889
 Kr     6.9554175826    -0.7380715241    -3.0825908421
 Kr     5.0419053809     0.6999402003     3.0225839326
 Kr     0.0502479473    -2.0837685241    -2.8907877146
 Kr    -0.7138517069    -7.4077342747     2.4206178808
          5
Energy: -1.172618223432421 Kcal/mole
 Kr     4.4634698716     2.4459611459    -0.6186031510
 Kr     0.9036173008     3.8017718765    -2.1621712530
 Kr    -1.6208940223    -0.1809668555     0.5427976865
 Kr     4.2322755218     6.6676347184    -2.1653789637
 Kr     3.9339135584    -2.3744259207     1.3886014942
          5
Energy: -2.177803563576054 Kcal/mole
 Kr     5.1077446391     2.1058491317     7.4486051268
 Kr     1.2264746133    -0.8677791715     5.9277096943
 Kr     2.4752727732     3.1264412248     4.5098852817
 Kr     6.8016768302     1.7239666623     3.0794502139
 Kr     5.2498468343    -1.4034791371     4.9322374459
          5
Energy: -2.236364139631731 Kcal/mole
 Kr     2.7584024567    -2.3365425326     3.2952454937
 Kr     0.9980821596    -5.5664640979     7.3363174142
 Kr     0.7379161382    -1.4424925738     6.4681840209
 Kr     5.0100123134    -5.4060511793     3.7960562754
 Kr     4.3844239961    -3.2501961313     6.8125248151
          5
Energy: -2.7921614991487833 Kcal/mole
 Kr     2.5039477352    -2.6968773250     3.1888825523
 Kr     1.4171590722    -5.8883970575     5.4805621204
 Kr    -1.0244879770    -2.4239547697     4.7823078604
 Kr     5.4045813711    -4.5681499857     5.5772126607
 Kr     2.2933921641    -2.4319258161     7.2342208966
          5
Energy: -2.8854885965953176 Kcal/mole
 Kr     2.4936134997    -2.6880730820     3.1986019778
 Kr     1.3284062510    -5.9202907976     5.3539452207
 Kr    -1.1168739739    -2.6859150131     5.0526089628
 Kr     5.1879982987    -4.6854323380     5.4957760693
 Kr     2.2863606251    -2.4379367611     7.2559883056
