          3
Energy: -1.1902205648689414E-4 Kcal/mole
 He     3.1300435249    -2.6842166678     1.9632812011
 He    -4.8055761464     0.1199737367    -1.9413700568
 He    -6.0796954903    -6.1747525499    -6.8499983715
          3
Energy: -0.0060963598644349516 Kcal/mole
 He    -1.4206204638    -5.0324347315    -5.8963941581
 He     1.1938100712     5.3747329386    -5.9352520918
 He     4.5341721728     3.7087890851    -4.9036417103
          3
Energy: -2.574464325363748E-4 Kcal/mole
 He    -3.6106332277     1.2770331016     6.4002911664
 He    -1.4153243453     7.4596819105     5.0775566440
 He     0.2760671165     0.0676647597    -5.5480460345
          3
Energy: -1.3460145774626397E-4 Kcal/mole
 He     1.9314930809     6.0883497279    -3.6966610364
 He    -5.6868134152    -6.7006967560     1.5196481793
 He    -0.1081472283    -1.8024905578     3.0575479470
          3
Energy: -3.208982658041017E-5 Kcal/mole
 He     7.0524513235    -2.5790943601     4.2915062139
 He     0.2530436925     6.6765513619    -2.9706086599
 He    -2.6282574549    -2.4571271246    -5.1358767848
          3
Energy: -1.3388006122886853E-4 Kcal/mole
 He     1.6372081471     3.4755391660     0.7760378363
 He    -3.6236308357     0.2501677255    -5.7523805097
 He     6.0436308351     3.8182878252     7.3458226098
          3
Energy: -0.002604278106576315 Kcal/mole
 He    -2.7262916379    -0.6411462808     0.6377622056
 He    -0.5105523679     0.3556560813    -3.5667450295
 He     1.6103804076     4.1739758243     0.0952205302
          3
Energy: -0.001207855367028365 Kcal/mole
 He     0.5959870035     5.4231702481    -5.0437109440
 He    -3.5997105263     6.4498696650    -2.1673350746
 He     3.5321631071     5.5092557077     3.4204555537
          3
Energy: -0.05312223000114867 Kcal/mole
 He     3.3468748813     3.9099266927     0.4705965983
 He     2.4465178201     6.6252074421    -0.0559843078
 He     0.1822410319     4.7264800476     0.3072709191
          3
Energy: -0.05999904343833027 Kcal/mole
 He     3.2123470245     3.9708036746     0.5734653871
 He     2.4350493636     6.6567278955    -0.0616383017
 He     0.4323481205     4.6708605190     0.4488873341
