          3
Energy: -1.2429473846468263E-4 Kcal/mole
 He     0.6843372252    -7.1285586410    -1.5150333763
 He     2.8611852629    -7.0060180733     7.4604870442
 He    -2.4359646163    -0.4752830956    -4.6296529930
          3
Energy: -2.57544445912718E-5 Kcal/mole
 He     1.9586642439    -0.9748563507    -5.3777695548
 He    -1.3418146778    -5.3428037772     6.1853619423
 He     5.7245126292     5.5958693631     1.7885269756
          3
Energy: -0.002101082689463494 Kcal/mole
 He     0.4445003242     1.1356308939    -3.9133702253
 He     4.0348552218     4.2929914930    -1.7342939199
 He     1.7264796492     5.7385077182    -7.1382016217
          3
Energy: -0.020873416271660325 Kcal/mole
 He     1.8120766690     3.6062839700    -2.8854143537
 He     0.1819606119     4.2630757351    -5.0607961831
 He    -2.7322493945     1.1191752058    -1.1687393645
          3
Energy: -0.012641237133917595 Kcal/mole
 He    -1.0942025969     3.2641863235    -5.5050554408
 He     5.0270766084     0.9881647324    -1.5646234028
 He     1.7845993730     2.1854590924    -2.6707220650
          3
Energy: -0.006123525932108382 Kcal/mole
 He     3.0424475250     1.4298823704     0.0474345957
 He    -0.1177455672     4.0775364473     5.6492141247
 He    -2.0597017331     0.7843307891     6.4101510690
          3
Energy: -0.0018271841922646356 Kcal/mole
 He    -2.2253029585    -7.2126848006    -4.3273602519
 He     5.8825150155     4.4798509021     6.4788582692
 He    -6.7536017980    -6.6389752445    -5.7468162490
          3
Energy: -0.02022951100329433 Kcal/mole
 He    -2.5774239965    -2.0198976731    -0.5537363780
 He    -2.0941607908     6.9007174715     1.4313652450
 He    -1.0088676769     0.3952702884    -0.6388177024
          3
Energy: -0.05937267591162338 Kcal/mole
 He    -1.4204000880     6.2106609080     1.6309596038
 He     1.3024863393     6.9898992510     1.0805874492
 He     0.3511149034     6.5193233862     3.8428900462
          3
Energy: -0.059999012867536915 Kcal/mole
 He    -1.4530910430     6.2326171696     1.6410363154
 He     1.1616184768     7.2881376178     1.0974247578
 He     0.6410540982     5.9505424893     3.5797320429
