          3
Energy: -0.002773800765170561 Kcal/mole
 He    -1.2750948215     2.3044922654    -5.1143276736
 He    -0.6718192795    -6.5632898297    -4.4972672528
 He     1.4840124758    -0.4184612990    -2.7664742660
          3
Energy: -3.991386091753144E-4 Kcal/mole
 He     1.4796523058    -5.3015558930    -7.2276532303
 He    -1.6079263275    -2.0407039691    -2.2224520102
 He     6.1618649325    -4.2435316088    -0.8284235577
          3
Energy: -9.16399223180393E-5 Kcal/mole
 He     6.4990723026     2.8265215049     3.6337079727
 He     3.9343054590    -5.0450054899     4.8795053955
 He     4.1651277589    -2.1460779339    -5.6775425173
          3
Energy: -3.412925399339069E-5 Kcal/mole
 He    -7.1466996480    -6.0777505251     1.0990899569
 He     0.3365596704    -7.1931570786     7.4243282953
 He     6.9306275985    -1.5575126773    -0.7265289198
          3
Energy: -0.0130128957960235 Kcal/mole
 He     3.3250113923    -0.6355541342    -3.1248840937
 He     5.5028073637    -5.2742961394    -3.6364206265
 He     1.5684306478    -0.6354747372    -6.0563147680
          3
Energy: -0.016152367495462262 Kcal/mole
 He    -0.2700019778    -6.9017828886     2.8549595102
 He     1.3217055724    -5.2547284952     1.4254335007
 He     3.6777703529     5.4893377766     1.3379278308
          3
Energy: -3.581329932287219E-5 Kcal/mole
 He    -3.2137460445     0.7970559980     6.3984959958
 He     0.1343652265     5.0849114367    -2.0383675917
 He     5.2141906918    -6.3851313563     4.8816721367
          3
Energy: -0.0057274542756742194 Kcal/mole
 He     0.4769553073    -2.7813069174     4.2669525099
 He    -5.0850155936     5.4356904426     1.8345254756
 He     2.8233855134    -4.8867774444     6.5905520388
          3
Energy: -0.051299151588056154 Kcal/mole
 He     5.6233776117     0.6918103877    -2.1150256272
 He     4.9547137746     3.5814319239    -1.8814602386
 He     6.8635502985     2.8642532599     0.1639491987
          3
Energy: -0.059999905151523966 Kcal/mole
 He     5.3893930077     0.8364137387    -1.8402724426
 He     4.5377593868     3.5710814867    -1.6872893911
 He     6.3658936618     2.5266083598     0.2613383804
