          2
Energy: -0.0191117613041502 Kcal/mole
 Kr    -1.1578145932    -5.1054275218    -1.9909705066
 Kr     5.8370573537    -5.8645909332    -3.8323375714
          2
Energy: -0.2989198958950325 Kcal/mole
 Kr    -4.3747412863     0.1555240928    -0.8995209117
 Kr    -0.4956230412    -1.2718481344    -1.9182423119
          2
Energy: -0.003601706741855832 Kcal/mole
 Kr    -5.8872580697    -2.1156818577    -2.4575837993
 Kr    -2.6983425775     2.5709931266     5.3214520182
          2
Energy: -0.28751731810709136 Kcal/mole
 Kr    -0.7094730897     1.0217028194     4.3084026268
 Kr     2.5588408670    -0.4480676413     1.8921584152
          2
Energy: -0.18053749554642784 Kcal/mole
 Kr    -2.0468616342     0.8941625052    -2.5430242800
 Kr    -5.9949923051    -1.8060056468    -3.4029979555
          2
Energy: -0.3160864805737931 Kcal/mole
 Kr    -7.1753826833    -3.6846349673     1.6132717642
 Kr    -4.5722725117    -0.6060289206     1.5290133794
          2
Energy: -0.31443549823608086 Kcal/mole
 Kr     3.5690966225    -1.7532200647    -3.3102766153
 Kr     2.4591001014    -4.1146974673    -6.3549537823
          2
Energy: -0.3105948163558197 Kcal/mole
 Kr     3.4045535966     1.2951609701    -0.7240566780
 Kr     0.1142059266    -0.4301166205     1.1763913812
          2
Energy: -0.316809839230376 Kcal/mole
 Kr     4.3034256763    -3.3966518821     6.6719432762
 Kr     6.6216657724    -0.1935939769     5.7886129022
          2
Energy: -0.31699999993206945 Kcal/mole
 Kr     4.3545425001    -3.5315789088     6.2547394418
 Kr     6.7327256941    -0.2649032508     5.7855567742
