          2
Energy: -0.03351041256586769 Kcal/mole
 Kr    -0.4845201613    -1.9643173243     3.3702493544
 Kr     5.3764820661    -2.8783585650     0.4544501770
          2
Energy: -0.0010513866619415422 Kcal/mole
 Kr    -2.2763829594    -1.4060947034    -6.6831486711
 Kr    -0.8033934939    -7.0810776222     3.5824429397
          2
Energy: -0.027660466963999684 Kcal/mole
 Kr    -3.6596095162     3.8114220254     2.5792064098
 Kr    -0.7526364096    -1.1167924666    -1.1508650822
          2
Energy: -9.202313322642563E-4 Kcal/mole
 Kr    -2.8185140809     3.1940304322     5.1117520662
 Kr    -0.6559113588    -7.2409805653    -0.5929169820
          2
Energy: -0.0023736041190590314 Kcal/mole
 Kr    -1.7686823776    -4.3299609608     1.3968872891
 Kr     0.6445938407     3.0800535356    -5.3681568850
          2
Energy: -3.797441219630508E-4 Kcal/mole
 Kr     1.6162125555     5.7002763231    -5.4998132365
 Kr     5.1308407156     0.0841237393     6.8446623307
          2
Energy: -1.0218166182860821E-4 Kcal/mole
 Kr     4.2199535957    -6.3796236993     5.5720726143
 Kr     2.0671198592     5.4529805467    -7.0535380268
          2
Energy: -0.3146100936893383 Kcal/mole
 Kr    -1.7344236046    -4.1797555075    -0.6056726980
 Kr     1.5881427628    -6.1752314737     0.4300422634
          2
Energy: -0.3164873264296163 Kcal/mole
 Kr     4.8168302734     2.3225689071    -4.0656955145
 Kr     6.5252574294    -0.8778675087    -2.1647868412
          2
Energy: -0.3169999999360335 Kcal/mole
 Kr     5.0661366083     2.4090814635    -4.0945884953
 Kr     6.2840563727    -0.7581217225    -1.8512702756
