          2
Energy: -0.02215539546681724 Kcal/mole
 Xe    -4.9460166694    -4.1591680158    -0.1889728436
 Xe    -4.9924068093     3.3222927911    -3.3427970979
          2
Energy: -0.06924188844891596 Kcal/mole
 Xe     2.6757890517     1.6042677674    -0.0070607768
 Xe     4.3430588072    -4.7661056200     1.1262134296
          2
Energy: -0.010503152135003703 Kcal/mole
 Xe     6.0427562707     1.6606915122     0.0443003301
 Xe    -2.9004252359    -0.1644415901    -1.1501285765
          2
Energy: -0.0037283731326788355 Kcal/mole
 Xe    -5.9108824467    -0.2779247839     5.4412381522
 Xe     2.4129968044    -0.8140898501    -1.6482819740
          2
Energy: -6.175045423887365E-4 Kcal/mole
 Xe     1.6612684138    -6.4422395463    -3.3108075916
 Xe     4.6704485087     7.4327219681    -7.4063966578
          2
Energy: -0.17761821826308022 Kcal/mole
 Xe    -3.3832234174    -1.8088350417    -3.9091577511
 Xe    -5.0577117047    -7.0105197021    -5.2829248690
          2
Energy: -0.4328807470281381 Kcal/mole
 Xe     5.5829857473     0.2861002512    -7.3959023089
 Xe     6.2068504087    -3.7268550896    -5.6902815687
          2
Energy: -0.001689906235893725 Kcal/mole
 Xe     6.3856986884    -1.2652468093    -4.4697933949
 Xe     1.9830674479     4.3060313860     5.8085444693
          2
Energy: -0.41558069232960676 Kcal/mole
 Xe     2.0620371143    -5.1596548382    -2.7224983641
 Xe     1.2666505536    -0.6513545828    -2.4716369540
          2
Energy: -0.4329999998903723 Kcal/mole
 Xe     2.5017271778    -5.0886734518    -2.2829409278
 Xe     1.5336648837    -0.8056639515    -2.7599979116
