          5
Energy: -0.18197768490399377 Kcal/mole
 He    -4.4115414663     1.4725546759    -2.1826681151
 He    -5.5069627044     1.1108292478    -4.8181454297
 He    -4.6037204057     3.6890538243    -3.9989543874
 He    -5.2163188981     4.0528352585    -1.2239886421
 He    -6.9907527841     2.5585520194    -2.8654772013
