          5
Energy: -0.18201971092092803 Kcal/mole
 He    -6.8254845240    -1.4294795565    -5.0425169776
 He    -5.2835830316    -2.9342483553    -6.9593362278
 He    -4.1158521426    -2.1390025349    -4.4551889110
 He    -4.6653052967    -0.1825445268    -6.4818319586
 He    -6.1550383598    -4.1576963578    -4.5204997889
