          5
Energy: -0.026777321977515107 Kcal/mole
 He    -3.6759501117     5.8758649491     4.8566659982
 He    -2.7381926377    -6.4974527735     2.4329698144
 He     1.1814488890    -2.5178957823    -3.7690588157
 He     1.0192378786    -6.7033752290     2.1117663626
 He    -0.0737373683    -2.4600163591    -6.2735505033
          5
Energy: -0.01827970170335691 Kcal/mole
 He     0.3782443722    -4.8879921439    -6.4498596588
 He    -4.5816804470    -1.9574528275     3.5749795112
 He    -0.6018988512    -1.9942559698    -6.4016138464
 He     5.5090829122     5.5153824408    -5.6609203436
 He    -0.3681561139     3.7667078707     1.4794937469
          5
Energy: -0.00600604472263436 Kcal/mole
 He     7.2444191929     1.7370600989     3.5265024519
 He    -1.7600496603    -2.2946289211    -2.6500036923
 He    -2.1198788034     1.1461153513     5.7060727237
 He    -1.0883629242     2.3865068697    -1.6202213700
 He    -4.4031281271    -0.6542885651    -5.5531360004
          5
Energy: -0.013106159678129661 Kcal/mole
 He    -2.2270356221    -3.7176089946     5.1882923421
 He    -2.4071548619    -1.9833224403    -3.3066560381
 He    -4.2835079332     0.5378662700    -0.0183524176
 He     1.2887699634    -0.5396268623    -0.9951530584
 He    -5.2371105576    -5.7707229397     4.3119616961
          5
Energy: -0.0036576699819919605 Kcal/mole
 He     2.0522565120     4.7533425193     5.7223666078
 He     2.9558278829     0.3212352059     6.1347471862
 He     3.3991997543    -6.2077937302     2.9647361236
 He     4.9485849935    -1.2184080264    -3.2027398894
 He     6.2580052157     7.0472376931     3.0681024101
          5
Energy: -4.3020666061491724E-4 Kcal/mole
 He    -6.2503856758    -3.2153519431    -4.7880925605
 He     1.6853867295    -3.8775953595     6.2310384118
 He     5.9811251585     3.8709963741    -1.2909843846
 He    -0.9649828967     0.5542473016    -5.5302566819
 He    -5.8233743297    -0.1064113453     6.7729829512
          5
Energy: -0.05426602133415476 Kcal/mole
 He     0.9904936198     1.3023621656     3.4610097788
 He     2.7299546377     3.5091885934     4.2720212592
 He     1.9848767077     1.9118569460     6.7454614100
 He     3.2484696587    -2.0890973902     2.6976958837
 He     0.7961660714     2.3772785863    -3.3965901440
          5
Energy: -0.03561950517424905 Kcal/mole
 He    -6.8362914764     4.5066810329    -3.9171727024
 He     2.6300993340     4.7218258816     4.8232776979
 He    -5.2838920243     1.9154821848    -0.4367338995
 He    -5.2695145133     7.0239143789    -4.4537744391
 He     5.2476102426     3.0152990701     3.9024495722
          5
Energy: -0.14136777877484108 Kcal/mole
 He    -5.4925601935     2.8154664800    -1.1187900380
 He    -3.7668717942     0.6628778168    -2.1434570675
 He    -3.0643740188     3.2829759769    -2.4498601192
 He    -0.8129750836    -0.0893884725    -2.1132811181
 He    -1.8024219474     1.6238513380    -0.1650605608
          5
Energy: -0.1820382505046677 Kcal/mole
 He    -4.6194165662     2.9066974191    -0.6920929124
 He    -3.7008179909     0.7111007124    -2.2717300865
 He    -2.5096222341     3.2965287105    -2.5894071094
 He    -0.8688559832     0.9589536738    -2.6973566875
 He    -2.0222145118     1.7842026536    -0.2011683126
