          5
Energy: -0.002290723750085411 Kcal/mole
 He     3.6391463129     1.9925349023     3.8431334639
 He    -2.6570575636     6.6039424636     5.8486717562
 He     5.5961005923     0.2884623222    -0.8027368856
 He    -2.7097690224     2.6590247132    -2.9066053329
 He    -5.8577409921     2.2588172353    -7.0238476521
          5
Energy: -0.018270096769232302 Kcal/mole
 He    -5.6590864616     2.8756335773    -3.0291292823
 He    -3.7749464858     2.9120310963     7.4553909794
 He    -7.0063316316    -4.0001855281     4.7095339823
 He    -6.1173025683     1.7716592205    -5.9105765757
 He    -0.7850893929     3.7353417859     3.3168083520
          5
Energy: -0.00813578113510145 Kcal/mole
 He     2.5670800362    -2.7834789942     1.7482150642
 He     0.9113611421     1.1214834104    -2.3560597246
 He    -3.6223370028     3.5596598228     0.0753051394
 He     1.7183700994    -6.0963338994     3.4442993213
 He    -4.9049856157    -6.1953191463     1.3844450950
          5
Energy: -0.021184781936825645 Kcal/mole
 He    -6.0939906337     4.5457131584    -1.0614619117
 He     3.0845852339     4.8563104910    -6.5423465094
 He    -7.4390539423     6.8139265389    -0.2861422629
 He     5.8755544240     4.3213178821     1.4364779724
 He    -6.2190764068     2.5143009284    -5.1053561373
          5
Energy: -0.009039193239812065 Kcal/mole
 He     3.9176868250     5.5966338731     5.8360258842
 He    -0.4069993780    -0.2035594830     1.0263364771
 He     2.6555938974     1.4899641416     4.8840726719
 He    -3.1641332899    -2.3009001563     3.1673517501
 He     6.7120371547    -3.8232097841    -0.4027579555
          5
Energy: -0.02143962845395537 Kcal/mole
 He     6.2469486645     3.1650875852     3.5659968235
 He    -0.4019431664     4.2276661567    -7.0296972690
 He    -6.5447987894     0.2486094884     2.3261203797
 He     4.9313807552     4.5461935256    -2.6224785977
 He     5.9240444187     5.1413301491     0.5513319163
          5
Energy: -2.2028270419129756E-4 Kcal/mole
 He     3.1278321886    -4.1777049292    -7.4342105841
 He     5.3869218893     6.7304595274     4.3667444626
 He    -6.4024124247    -3.4278415012    -0.7566315244
 He    -4.8520092123     3.7422087109    -5.3982337360
 He     5.1587273268    -0.3870787704     1.5170013021
          5
Energy: -0.13364045392984247 Kcal/mole
 He     2.0467816807     4.7676410802    -1.2726034395
 He     1.4418402061     2.3852691245     0.4748403071
 He    -0.4832257576     1.0646110845    -2.1030104243
 He     2.2942969882     1.7572061106    -2.3244666820
 He     2.4574906056    -0.0879665100    -0.1901003613
          5
Energy: -0.16476143570185628 Kcal/mole
 He     5.1476869248     4.7854210918     4.5401650570
 He     5.1086075596     1.5374832063     3.6544833462
 He     2.8031600394     5.8611343048     3.7701576335
 He     4.1399859464     3.8883218418     2.1817890248
 He     2.9684244893     3.0599224560     4.6740680674
          5
Energy: -0.18204564383512672 Kcal/mole
 He     5.5364050758     4.7092743495     4.5991148565
 He     5.4351936792     1.9765977920     3.7414554778
 He     3.0383442703     5.9706707913     4.0208033767
 He     4.0798657608     3.9828406825     2.2362322953
 He     3.0873886222     3.2284372570     4.8245145542
