          5
Energy: -0.18204564383512672 Kcal/mole
 He     5.5364050758     4.7092743495     4.5991148565
 He     5.4351936792     1.9765977920     3.7414554778
 He     3.0383442703     5.9706707913     4.0208033767
 He     4.0798657608     3.9828406825     2.2362322953
 He     3.0873886222     3.2284372570     4.8245145542
