          5
Energy: -0.1820382505046677 Kcal/mole
 He    -4.6194165662     2.9066974191    -0.6920929124
 He    -3.7008179909     0.7111007124    -2.2717300865
 He    -2.5096222341     3.2965287105    -2.5894071094
 He    -0.8688559832     0.9589536738    -2.6973566875
 He    -2.0222145118     1.7842026536    -0.2011683126
