          5
Energy: -0.002455881754051118 Kcal/mole
 He     2.5576592931    -1.1331033159    -2.7070550080
 He     3.9192727237    -2.0486340191     3.3704461054
 He    -1.2477444151     4.9192156630     2.9420348780
 He     1.5062750979     4.4175675647    -3.8139550749
 He    -2.6087465441    -0.2005728615     0.2049530687
