          2
Energy: -0.00257146521837396 Kcal/mole
 Ne    -1.5511561423     4.8653365849    -7.1405259833
 Ne    -6.8700635438     3.2026450145    -4.7831287126
          2
Energy: -5.100657593044791E-4 Kcal/mole
 Ne    -3.3778829391    -3.3917539528    -5.6906526366
 Ne     2.3965040442    -3.5945465967    -0.2543194755
          2
Energy: -1.9376196326770378E-4 Kcal/mole
 Ne     4.3031963359     2.4239489780     5.7175392534
 Ne     0.0820880566    -5.8817785586     6.0828871615
          2
Energy: -3.6594363607351546E-5 Kcal/mole
 Ne     0.8755696352    -3.9254836341    -2.8400670830
 Ne     4.1487386298     6.3833752352     3.0394092494
          2
Energy: -0.012269549704592797 Kcal/mole
 Ne     1.7363470466     2.9337463117     1.8079247660
 Ne    -0.7601611849    -0.5171305277     3.6329700193
          2
Energy: -4.477924760560959E-5 Kcal/mole
 Ne     2.1092731633    -0.7127812697    -4.2036018233
 Ne     5.4576944359    -1.3886599131     7.1991467603
          2
Energy: -2.3229137903231935E-5 Kcal/mole
 Ne     5.8957763755    -6.4541323149    -3.3226456678
 Ne     1.1341358181     4.1586173142     3.0839028077
          2
Energy: -3.3066160911862365E-4 Kcal/mole
 Ne     5.1057072764    -0.5103525410    -4.7424675528
 Ne     1.9244813105    -7.2076900122    -0.5278684823
          2
Energy: -0.06892373957291369 Kcal/mole
 Ne    -7.1144880243    -4.4159880109    -5.4621754540
 Ne    -5.9252812450    -1.8383524180    -6.7997533797
          2
Energy: -0.06899999995583604 Kcal/mole
 Ne    -6.9357218048    -4.5192603114    -5.4752578989
 Ne    -5.9931338279    -1.9104080027    -6.9044361347
