          2
Energy: -1.0899126395140485E-5 Kcal/mole
 Ne    -5.7940889255     2.2220511296    -6.8436817774
 Ne     2.0065417176     7.1725983330     5.0554144587
          2
Energy: -0.008238655496707638 Kcal/mole
 Ne     4.1982157156    -1.5207763775     1.5641157883
 Ne     4.0202046988     1.1051501792    -2.6463721685
          2
Energy: -3.840334909850507E-4 Kcal/mole
 Ne     0.0328081135     2.5678334577    -5.2661524630
 Ne    -5.2908197415    -3.7009190208    -6.5133961713
          2
Energy: -2.268458686896827E-5 Kcal/mole
 Ne     2.5361029944    -2.8827637554     0.2991458680
 Ne    -7.2144666401     2.7915035826     7.4038406857
          2
Energy: -0.009026115848737198 Kcal/mole
 Ne    -3.6712244350    -3.0641464460     0.1881010501
 Ne    -7.4977110729    -5.8925354957     1.3059394692
          2
Energy: -1.1970039076931566E-4 Kcal/mole
 Ne     6.4375641406     0.7254611670    -2.0562236067
 Ne    -1.4415460220     6.8697002722    -3.5574154225
          2
Energy: -0.005021521382647585 Kcal/mole
 Ne     6.1824631737     2.5654414338     1.5630333903
 Ne     1.7517798133    -0.3696712817     0.5854470860
          2
Energy: -5.449101730649661E-5 Kcal/mole
 Ne     3.3563167268    -0.5448100655     3.7548210046
 Ne     3.4114188734    -5.0815378746    -6.8343617637
          2
Energy: -1.6710851689668026E-4 Kcal/mole
 Ne     0.2991389663    -3.3380978061     0.7784618608
 Ne    -6.1677896834     2.9077300048    -2.4624911025
          2
Energy: -0.06899999996215524 Kcal/mole
 Ne    -2.9746471966    -0.5278340982    -1.1313118037
 Ne    -4.8762460934     1.9156815537    -1.5189973085
