          4
Energy: -0.11673879156360141 Kcal/mole
 Ne     4.0312430802    -0.0841271246    -7.3741539747
 Ne    -1.6446066848    -2.8664368662     5.1812726775
 Ne     2.4824489435     2.2437248797     6.1195907159
 Ne     0.5477295344    -0.3157736162     6.3609978981
          4
Energy: -0.014574324299692238 Kcal/mole
 Ne     5.0164484142    -7.1296303724     0.0055473726
 Ne     1.9180607916    -1.8064118267    -0.6321553948
 Ne     4.5342910741    -7.1326422612    -5.1581705344
 Ne     3.3738477320    -7.1825052920     5.2275123631
          4
Energy: -0.0022965753606223206 Kcal/mole
 Ne    -2.2822603325    -6.0917194575     1.8839242578
 Ne    -0.2903579083     0.3975020267     1.7955218284
 Ne     6.4585464428     7.2611167244    -1.9520330334
 Ne     3.6529448029    -2.3635064169    -4.2712326126
          4
Energy: -0.025031310310178405 Kcal/mole
 Ne    -5.0460561707    -6.4364353958    -6.0004327905
 Ne    -4.9220699404    -5.0115619027     6.4176988577
 Ne    -6.1335008012    -7.2694353190     3.2186730388
 Ne    -4.8257543981     1.8279234392     1.0208159436
          4
Energy: -0.0033470860901695333 Kcal/mole
 Ne    -7.0080425341    -5.2855048342     0.3350777296
 Ne     5.3257223620    -5.3989769008     5.6852359230
 Ne    -0.0981398978    -7.3814978052    -1.5834897664
 Ne     4.6341846129    -0.1492399654     2.4364438646
          4
Energy: -0.002337746308736913 Kcal/mole
 Ne     1.1500479733     1.9077328415    -5.2777437258
 Ne     7.3353911379     4.3386432166    -3.9133976344
 Ne    -4.0603769519    -6.6440181164     0.3740592019
 Ne     3.3058505733    -5.6046051236    -2.1422646852
          4
Energy: -0.010784661907787171 Kcal/mole
 Ne    -0.0643440429     0.4010064492     4.5318196658
 Ne     4.5126046574    -6.1633893721     2.5868202911
 Ne     1.6827378837     5.0490371327     2.7480587883
 Ne     5.9399005391     0.5241249498     5.4896073135
          4
Energy: -0.05968475061151708 Kcal/mole
 Ne     0.3551158080    -3.8626852830     1.7375536735
 Ne     6.9324547058     6.2216653936     6.0924968313
 Ne     5.8792453961     5.0979552260    -4.2733338516
 Ne    -2.1833483139    -5.5011185585     0.2418648609
          4
Energy: -0.37071001160657513 Kcal/mole
 Ne    -5.3844801770    -2.9844855206    -1.7706841134
 Ne    -3.3145710568    -4.9292953295    -0.2765354868
 Ne    -2.4974389782    -2.6142305949    -2.3413691390
 Ne    -4.1013017687    -2.1632964756     1.0109990368
          4
Energy: -0.4138601604054089 Kcal/mole
 Ne    -5.3754712612    -3.2017544493    -1.7772178132
 Ne    -3.2148168162    -4.9857250760    -0.3838948722
 Ne    -2.3513168649    -2.5389773146    -2.1242123149
 Ne    -3.7403765075    -2.0680923699     0.6401174823
