          4
Energy: -0.038654314922257536 Kcal/mole
 Ne     2.7019628955    -1.2526686101     3.8943873511
 Ne     7.1644883001     5.1587779461     0.2860313304
 Ne     4.4783520592     2.1775266105     2.9329721688
 Ne    -4.9529899053    -4.8703006178    -3.2450790540
          4
Energy: -0.015770696455421108 Kcal/mole
 Ne     2.8300500013     5.2888211808     1.8355507706
 Ne    -3.9494395273     4.3171414432     4.8317750261
 Ne    -2.7920104864    -1.5334520402     7.3840418704
 Ne    -1.6893875085     1.4562551224     1.5553073383
          4
Energy: -0.0023785834073003914 Kcal/mole
 Ne    -4.3116622104    -0.1276181690     1.4670352204
 Ne     0.6389257730     3.8137344240     3.9264141135
 Ne     6.3136106640    -1.2264074975    -6.9798260248
 Ne    -4.5864249162     5.9490681119    -2.8233155727
          4
Energy: -0.019453858493650323 Kcal/mole
 Ne     1.1016659414     0.0855980685     2.1660517927
 Ne    -0.1525076335    -4.4276235722    -6.6323549518
 Ne     3.7825643451     3.3734343576     0.3797252860
 Ne     2.3289596275     5.8682214427    -3.9767727744
          4
Energy: -0.0014225434931459965 Kcal/mole
 Ne    -3.1214618719    -0.4398136704    -6.3773489622
 Ne    -0.5619206206     5.6935897626     4.3482670707
 Ne     4.2488376590     1.9928037884     1.1342633291
 Ne    -2.4602785602    -6.6151261136     5.5731203154
          4
Energy: -0.04537478100463138 Kcal/mole
 Ne    -3.2773565872    -4.8128678342    -5.8976705695
 Ne    -0.0866925650    -0.5252515597     1.0508589381
 Ne     2.9897836035    -0.2961405490    -0.9108826308
 Ne     7.2327097306    -1.3657594353    -5.7472337972
          4
Energy: -0.003920742830404521 Kcal/mole
 Ne    -7.4279434101     0.2541104810     1.5046583882
 Ne     1.3251655915    -5.1002709977     0.8762106799
 Ne    -7.1544376982    -6.0177651861    -0.1574652804
 Ne     1.1972573204     0.6160577268    -2.3872796849
          4
Energy: -0.06788375752548388 Kcal/mole
 Ne    -3.6447953876    -0.8723981904    -5.3189437577
 Ne     1.5821305180    -7.2004618965     3.3312366274
 Ne    -2.3193421835    -2.7995466402    -7.4968283746
 Ne    -5.4450568947     5.5779397769     6.8394985511
          4
Energy: -0.09943827177844664 Kcal/mole
 Ne    -3.9939148693    -0.7548356427    -1.9276386731
 Ne     0.1441230466    -4.8615362619     0.3924005466
 Ne    -1.5106426040     0.6740667123    -2.3891941767
 Ne     3.1417185310    -2.8326230500     0.1512329482
          4
Energy: -0.41392176838492467 Kcal/mole
 Ne    -2.3991434017    -1.7845503702    -2.2682276659
 Ne    -0.2884232797    -4.0752820146    -2.0746790807
 Ne     0.2708285190    -1.6169462954    -3.9017360485
 Ne     0.3117210164    -1.2823267600    -0.8002991237
