          4
Energy: -0.006119234058964086 Kcal/mole
 Ne     5.7389162486     4.8980536061     6.7581121505
 Ne     0.8576282282     5.9061154753     2.7850428874
 Ne    -2.9180711942    -2.9607125987    -4.0203563349
 Ne    -0.0950596507    -0.4534265700     0.6195700184
          4
Energy: -0.008002621723186868 Kcal/mole
 Ne     0.9151093671     0.5228032999    -1.7813783975
 Ne    -4.8828861701    -0.6250492391    -1.9944439456
 Ne     7.3141735933     5.8776173407     3.0015503396
 Ne    -1.6271170441    -4.9217584091    -4.2339155489
          4
Energy: -0.0037038029866129753 Kcal/mole
 Ne    -3.7278370227     5.9774932394    -4.1291565722
 Ne    -2.1399219463     0.8718848862    -6.6439940712
 Ne     6.8327508227    -3.1235703594     5.2904989499
 Ne    -0.8747491930    -3.8784966010    -0.3429374171
          4
Energy: -0.007178302453032916 Kcal/mole
 Ne    -6.0779080435     2.4016389000    -0.3895119416
 Ne     5.6651585697     5.8958172707     2.7981518305
 Ne    -4.1549050971    -0.6099603545     3.6467791306
 Ne    -7.0373772918    -0.2441847792    -6.1090458123
          4
Energy: -0.007700589275484599 Kcal/mole
 Ne     1.5949687601     1.2743646099     1.2594885843
 Ne     3.4706138511    -5.8611910038    -0.6562970091
 Ne    -6.8045073270    -5.1081324058     0.0436739456
 Ne    -2.0928979461    -5.4641636856     2.7855155946
          4
Energy: -0.005542863740310955 Kcal/mole
 Ne     2.6893389331    -2.9102819916    -3.8625282726
 Ne    -5.2048950325     3.9549842741     6.6652609836
 Ne     1.8629460890     4.5759124577    -7.1320586093
 Ne    -2.4934888798    -3.9468840785    -2.7029087875
          4
Energy: -0.03162936699862756 Kcal/mole
 Ne    -7.2153794793    -1.4791888092     1.8543569390
 Ne     2.6051238615     3.3152548431     4.9694804535
 Ne    -1.7183982051     2.5691605040    -2.7272262323
 Ne    -2.2579136201    -0.2694960321     0.1398361897
          4
Energy: -0.230088639616152 Kcal/mole
 Ne    -2.9566416010    -3.9380113771    -3.3870791068
 Ne    -1.9084178621    -1.6453532874    -1.5793789540
 Ne     0.8840198824    -2.8070784412    -1.9730947981
 Ne     3.3319281462    -1.2562321984    -1.0553614049
          4
Energy: -0.3626949482523319 Kcal/mole
 Ne    -6.1755333966    -5.3659614220     0.6795360873
 Ne    -5.8554013678    -7.1197934774    -1.7966392928
 Ne    -3.3512405138    -7.0631493175     0.2098653851
 Ne    -3.9854087325    -4.6111587075    -2.1509778477
          4
Energy: -0.4139758517935851 Kcal/mole
 Ne    -5.7624940185    -5.0372286491     0.4995080882
 Ne    -5.8564988674    -7.0969093983    -1.8413933156
 Ne    -3.3882855530    -7.0021322762     0.0618183824
 Ne    -3.8830757045    -4.6851303010    -1.9723583624
