          32
Energy: -130.76350256848698 Kcal/mole
 H      3.5043519056    -0.5749881541    -1.6165789908
 F      3.1372567838    -0.8186122513    -0.8123542269
 H      0.8489942064     6.0953262711    -0.6245979059
 F      1.0469282150     6.0367987608     0.2688704253
 H      3.5964341121     4.3448299350     1.6805762592
 F      3.9226896693     3.8223597582     1.0012595247
 H      1.6279626131     4.1370830551    -4.3102570241
 F      1.9449022320     4.9288841899    -3.9733753820
 H      0.7711869241     4.5808029423     0.9699075482
 F      0.6787907249     3.7042193742     1.2227972287
 H      3.5277336912     3.1069129407    -2.4347997344
 F      3.9939675818     2.6328342404    -3.0662776400
 H      2.4173131897     4.5756560875     3.4657382018
 F      2.8396975526     5.1472743872     2.8863135134
 H      1.7501052815     2.5488256053     3.9474005373
 F      1.7509937583     3.3695828752     4.3563573988
 H      2.4229242862     0.3900449749     0.0315968161
 F      2.0700798450     1.1057729147     0.4833969009
 H      1.0733638644     2.0642739062    -3.8983309490
 F      0.9865847657     2.6400545106    -4.6067341418
 H      1.9634058688     1.1092306546     2.1519363303
 F      1.8969684001     1.1389324894     3.0660440175
 H      3.0908053844     3.8112578210    -0.4127936732
 F      2.6377450008     3.8042671036    -1.2100241409
 H      0.0404186568     2.8664681930    -0.0674982857
 F     -0.3085370047     2.5023134451    -0.8333378680
 H      0.7380055566     1.6657828291    -1.8009569488
 F      1.2870718148     1.2953097678    -2.4351217183
 H      0.9935710440     5.6935165842    -2.8586584718
 F      0.4431765328     6.0506780096    -2.2180411147
 H      4.1642828144     0.9849712735    -3.0684043311
 F      4.2050744632     0.0737536334    -2.9740250238
