          32
Energy: -130.80002194121255 Kcal/mole
 H      3.2440729285    -0.5260930296    -1.8374114945
 F      2.8907750731    -0.7961071702    -1.0354376862
 H      1.1115901280     6.2920485974    -0.5212456521
 F      1.3130201239     6.1831899380     0.3667097235
 H      3.8615330379     4.1016862864     1.6309307199
 F      4.1218552526     3.5986110244     0.9097950702
 H      1.5582746958     4.3280218005    -4.3396404774
 F      1.9327008370     5.0856078662    -3.9836103974
 H      1.0270904065     4.7021122131     1.0118638469
 F      0.9056868289     3.8204747063     1.2329192197
 H      3.5055913010     3.2215605179    -2.5669334695
 F      3.8832549314     2.7386732823    -3.2489005508
 H      2.6948195484     4.3896991001     3.4424464070
 F      3.2138288955     4.9183559762     2.9020389636
 H      1.7620474677     2.4498332429     3.8409991409
 F      1.8341653179     3.2565861909     4.2709266888
 H      2.3020139671     0.4299569676    -0.1341846901
 F      2.0189542290     1.1567023378     0.3481091536
 H      0.9170363749     2.2892832777    -3.9743153602
 F      0.8279556618     2.8754611780    -4.6738502740
 H      1.8847049956     1.0690655003     2.0089240828
 F      1.7985044286     1.0575307419     2.9217906730
 H      3.2507841702     3.7886826934    -0.4610227865
 F      2.7706487397     3.9015667849    -1.2340791559
 H      0.1588981087     3.0973993562    -0.0589283264
 F     -0.2520389911     2.7966549527    -0.8215373375
 H      0.6687609692     1.9061238208    -1.8587394194
 F      1.1567820529     1.5093140517    -2.5260222897
 H      1.1386312778     5.9341439096    -2.8027883902
 F      0.6791946001     6.3430402983    -2.1226334942
 H      3.9461170010     1.0752237240    -3.2618778341
 F      3.9363003789     0.1618682413    -3.1807951841
