          32
Energy: -130.8209238133268 Kcal/mole
 H      3.1955245274    -0.5255444461    -1.8728140784
 F      2.8242201750    -0.8051230125    -1.0823345385
 H      1.0522383348     6.3368508089    -0.4749137742
 F      1.2643691500     6.2256672337     0.4102572431
 H      3.8930452912     4.1569118174     1.6254525064
 F      4.1323602295     3.6410965621     0.9060416483
 H      1.4931284785     4.3904263359    -4.3109602989
 F      1.8659851300     5.1478878899    -3.9530232770
 H      1.0448103950     4.7259229775     1.0477300264
 F      0.9590115341     3.8380432628     1.2603262812
 H      3.4932582763     3.2486884880    -2.5738403875
 F      3.8629787500     2.7614399632    -3.2570567854
 H      2.8110456479     4.4329410203     3.4630996711
 F      3.2904117161     4.9820701659     2.9067235804
 H      1.9667191882     2.4529969727     3.8564669149
 F      2.0234053014     3.2537350806     4.2997435409
 H      2.3134550772     0.4373331810    -0.1610395935
 F      2.0756107886     1.1749410364     0.3291172652
 H      0.8804862775     2.3437543269    -3.9639866456
 F      0.7766445819     2.9396360261    -4.6532115021
 H      2.0493423430     1.0978629996     1.9936108053
 F      2.0191055537     1.0816173391     2.9099681674
 H      3.2533927689     3.8303212096    -0.4631050626
 F      2.7701225789     3.9426617256    -1.2342850234
 H      0.1976084661     3.1104988108    -0.0254171353
 F     -0.2270172000     2.8157058687    -0.7828332462
 H      0.6685889158     1.9332082752    -1.8480573062
 F      1.1423978511     1.5409910432    -2.5281747488
 H      1.0725880821     5.9861533875    -2.7565634813
 F      0.6134921377     6.3878972033    -2.0719308643
 H      3.9280006705     1.0927461526    -3.2657127391
 F      3.9235349373     0.1794497743    -3.1835009232
