          32
Energy: 6.498149046300092 Kcal/mole
 H     -0.4036885351    -3.6598754708    -2.6154871064
 F      0.5133114649    -3.6598754708    -2.6154871064
 H      3.3551968904    -4.2388541766     4.3016530149
 F      4.2721968904    -4.2388541766     4.3016530149
 H      3.8129028573    -0.7875333146     6.3091466427
 F      3.6136029493    -0.7875333146     5.4140664526
 H     -4.5148759778    -5.1444309144    -1.9556392832
 F     -3.5978759778    -5.1444309144    -1.9556392832
 H      2.5415793381     2.2703629580     2.3430541649
 F      3.4585793381     2.2703629580     2.3430541649
 H     -3.0641645554     5.5948166184     2.1083533224
 F     -2.6917676200     4.7568371899     2.1083533224
 H     -4.4912314492    -5.4834629645     4.8347299691
 F     -3.5742314492    -5.4834629645     4.8347299691
 H      0.8651435398    -2.9634176076     5.2868275426
 F      0.2971260493    -2.2435251639     5.2868275426
 H     -1.8050706534     3.8158467096    -4.3562042293
 F     -1.1180848034     3.2084428555    -4.3562042293
 H     -2.7094323146    -2.1106066750    -2.7166316514
 F     -2.3161637455    -1.2822173749    -2.7166316514
 H     -4.7409788041    -0.8735449907    -0.1618426722
 F     -4.3791777556    -0.0309365399    -0.1618426722
 H     -5.4920462779     3.6270056690     4.4824737121
 F     -4.5750462779     3.6270056690     4.4824737121
 H      2.9423444961     3.5081772686    -2.3544771458
 F      3.8593444961     3.5081772686    -2.3544771458
 H      0.3198900272     0.4620992611    -0.2453696790
 F      1.2368900272     0.4620992611    -0.2453696790
 H      6.1247605410    -5.5101606209    -4.9651913277
 F      5.2747316336    -5.1661550155    -4.9651913277
 H     -4.4808066107    -0.3542969851     4.6403579415
 F     -3.5638066107    -0.3542969851     4.6403579415
