          32
Energy: -130.8173848332965 Kcal/mole
 H      3.1940348185    -0.5289022920    -1.8709661243
 F      2.8307567729    -0.8071668022    -1.0763046090
 H      1.0569490044     6.3423282219    -0.4774043829
 F      1.2669521830     6.2278208711     0.4078502311
 H      3.8908986566     4.1643200989     1.6302440739
 F      4.1364781284     3.6521763880     0.9103214791
 H      1.4958066344     4.3900960474    -4.3130340968
 F      1.8658430600     5.1479054110    -3.9529132668
 H      1.0457108267     4.7305731675     1.0491755563
 F      0.9574546140     3.8436049902     1.2645526517
 H      3.4959489175     3.2494390611    -2.5729262977
 F      3.8628360177     2.7614001470    -3.2571052758
 H      2.8029829763     4.4269345543     3.4638732510
 F      3.2805580160     4.9803902905     2.9102507898
 H      1.9521199153     2.4462483698     3.8516838648
 F      2.0202150671     3.2443639603     4.2980733299
 H      2.3161788419     0.4367178256    -0.1587780288
 F      2.0754662992     1.1749736796     0.3289972944
 H      0.8875074254     2.3430789110    -3.9687288796
 F      0.7840322249     2.9366108129    -4.6600332730
 H      2.0243329475     1.0934465323     1.9893342107
 F      1.9815589545     1.0762394465     2.9051744270
 H      3.2615648494     3.8370362308    -0.4624762319
 F      2.7789054570     3.9473356643    -1.2343330488
 H      0.1991876315     3.1202365098    -0.0190022053
 F     -0.2216189218     2.8249928019    -0.7783716790
 H      0.6791704064     1.9390076208    -1.8422036573
 F      1.1521309683     1.5461137977    -2.5225210470
 H      1.0772336022     5.9957757109    -2.7606478699
 F      0.6214632099     6.4029431240    -2.0769980712
 H      3.9189550240     1.0909184662    -3.2709046402
 F      3.9098040749     0.1773148392    -3.1925868718
