          32
Energy: -130.59837112065043 Kcal/mole
 H     -0.8194769020    -1.0191998532     2.2500734173
 F     -0.2995843581    -1.7640917110     2.3755200715
 H     -4.3270711831    -0.5353606642    -3.1374984909
 F     -5.0842149782    -0.0285105432    -3.2410611698
 H     -5.2864185267     2.7000851363     1.1457669820
 F     -5.2398452568     3.6001694154     0.9767456188
 H     -1.0366584069    -0.5143063590    -0.8024932155
 F     -1.3720954207    -1.3644276054    -0.8777585872
 H     -5.5222155865     1.1633995342    -2.1757969385
 F     -5.6653752326     1.8681394556    -1.6068189435
 H     -2.5783461931     3.0448473505     3.1178102069
 F     -2.1589735641     2.2632760060     3.3505371533
 H     -4.7051827360     0.5836469356     0.8872082208
 F     -5.0202366879     1.1227336109     1.5587851442
 H     -3.9854103682    -1.2350415608     0.0211793234
 F     -4.1129757096    -0.3906725708    -0.3129719782
 H     -0.9651096378    -3.0808089939     1.6226600133
 F     -1.4887286043    -3.7138724040     1.2152991208
 H     -1.2160652555     1.6322605187    -0.3748426180
 F     -0.6040196470     1.0644634442    -0.7541784260
 H     -2.9857444151    -3.1426056402     0.8298651282
 F     -3.7955678272    -2.7436119940     0.6689952694
 H     -4.1001922527     4.2090063324     2.0404282244
 F     -3.4393628255     4.3755649291     2.6539848249
 H     -4.5471418586     3.0873034021    -1.7837572882
 F     -3.7701534243     3.5734642237    -1.8124910389
 H     -2.8786751342     3.0618090267    -0.5403326089
 F     -2.4470436742     2.6319748630     0.1451058454
 H     -2.3303182334    -1.4234758284    -2.2333587512
 F     -2.8831915924    -1.3750122358    -2.9633391134
 H     -2.0296975987     0.9138802000     2.3962126210
 F     -1.9067574349     0.1830415351     1.8561667321
