          3
Energy: -0.9271959200192982 Kcal/mole
 Xe     1.0483620269    -1.9534182193     3.1291899621
 Xe    -1.3999133691    -0.5973150762     6.3563349018
 Xe    -2.8899402273     2.4277264825     2.9923599009
          3
Energy: -0.3966579482054937 Kcal/mole
 Xe     5.4795390176    -2.3481358944     3.1953915597
 Xe    -3.7297998491     3.0180149624     7.3909125723
 Xe     4.6299051390    -6.8877090808     4.0293997449
          3
Energy: -0.5089531522413875 Kcal/mole
 Xe    -0.9200101016     3.9321115472     2.3961014182
 Xe     5.2849665511     5.6208601643     3.6781501196
 Xe    -5.0073082303     3.3303403230     3.7152016736
          3
Energy: -0.7924040836639722 Kcal/mole
 Xe     1.6995337010    -5.2102459298    -1.4604366940
 Xe     2.6530237176    -0.5646749646    -1.5396666102
 Xe     5.6984478728     2.4794309160    -3.3398020236
          3
Energy: -0.9816449711145827 Kcal/mole
 Xe    -1.6848357158    -1.4683498550    -1.9568609863
 Xe    -3.2031653895    -5.0267791511    -0.1133828624
 Xe     1.2203948925    -5.5350739055    -2.7666071930
          3
Energy: -1.1246252171707583 Kcal/mole
 Xe     4.2914067629     1.3121312794    -1.8482856806
 Xe    -0.4743619576     2.1498559278    -2.9640665514
 Xe     1.8069344478    -2.0448057248    -3.0882782399
          3
Energy: -1.2562411466660066 Kcal/mole
 Xe    -2.6068064389    -6.8046152812    -0.5673824701
 Xe    -1.3091725850    -5.4194950169    -4.5784206063
 Xe     1.6933271407    -6.4940873920    -1.8029883226
          3
Energy: -1.242537692565195 Kcal/mole
 Xe    -0.8522242328    -6.1524897399    -5.1139572832
 Xe    -4.5957167923    -4.5672845351    -2.8148478106
 Xe    -4.8305403905    -7.4149667422    -6.0891731574
          3
Energy: -1.283837692511498 Kcal/mole
 Xe    -2.1016287160    -1.3084854162     1.0520942421
 Xe    -6.6369613834    -0.8577801213     1.3469644878
 Xe    -4.2879851479     1.4721706929    -1.5504536820
          3
Energy: -1.2989912463257218 Kcal/mole
 Xe    -2.3682602988    -1.6137766701     1.0729800810
 Xe    -6.7378328901    -0.9815205205     1.1282510971
 Xe    -4.1301009582     1.7904079741    -1.1167107818
