          3
Energy: -0.09314910082168013 Kcal/mole
 Xe     3.8426116133     2.5760185799     2.2479986483
 Xe    -2.7335237803     0.4801896592     1.5101266966
 Xe     0.2511767393    -3.2216740822    -4.5818911028
          3
Energy: -0.4341405707646824 Kcal/mole
 Xe     1.0727363039     4.6798094990     2.9365706881
 Xe    -2.4253420399    -4.0024230806     2.7302325417
 Xe    -0.4574322644     6.9979872558     6.2322159638
          3
Energy: -0.5737416870569367 Kcal/mole
 Xe     5.2438297611    -5.3197722715    -6.4810492758
 Xe     7.4603215044    -0.4486035381    -5.3951020860
 Xe     4.5816220008     1.4610929767    -1.9422942516
          3
Energy: -0.7770386971485207 Kcal/mole
 Xe     5.7176493820    -2.4271877678    -1.0566036057
 Xe     4.5670008285     1.1531012124     2.4682200799
 Xe     5.6810723364     4.0647822254    -0.5070954436
          3
Energy: -1.0671944688171315 Kcal/mole
 Xe    -2.7912476705    -1.7917525781    -3.6170466255
 Xe    -6.3610307131    -0.6794043051    -1.1545118344
 Xe    -7.0290389725     0.4428353682    -5.7173284162
          3
Energy: -0.6937035446382886 Kcal/mole
 Xe    -3.1286813610     3.8842606310    -1.8216662763
 Xe     0.9635760791     0.7269933999    -1.8534448267
 Xe     0.7907789257    -0.4315072860    -6.4318700741
          3
Energy: -1.1840366460499077 Kcal/mole
 Xe    -0.7642653935     0.9014103747    -4.5287326023
 Xe     2.5135780827     4.0267749414    -4.3691911539
 Xe     2.7325997979     0.0631330486    -2.4950287127
          3
Energy: -1.2758184126801906 Kcal/mole
 Xe    -2.4727800707     0.2522425858    -3.8570996303
 Xe    -2.5260086050     4.2446912667    -1.9807334654
 Xe    -4.3323113677     3.9042588558    -5.9752576775
          3
Energy: -1.2653564603117509 Kcal/mole
 Xe    -0.2297625155     2.2807341199     3.9267151779
 Xe     1.5627405557     4.7252968131     0.5033259124
 Xe     2.4930248648     0.5618128369     0.8733709585
          3
Energy: -1.2989971772053495 Kcal/mole
 Xe    -0.2087445281     2.3377342621     3.8440255395
 Xe     1.5402798282     4.8551441555     0.6637453032
 Xe     2.3544316359     0.5139470250     0.7460007813
