          3
Energy: -0.19967757170449227 Kcal/mole
 Xe    -5.9046174832    -4.2526084854    -0.8651431331
 Xe    -4.8834201861    -0.3906679146     3.1117501237
 Xe     2.2745460684     3.6747499345     2.5588280749
          3
Energy: -0.021635612825678198 Kcal/mole
 Xe    -7.4098523318    -6.2259506989     5.8918250865
 Xe    -3.4097428601     6.4079939190    -6.2482090728
 Xe    -2.4266293512     2.7154129383     1.2171523543
          3
Energy: -0.0030060795492477714 Kcal/mole
 Xe     4.4967799126     7.1510420046     6.6944115600
 Xe    -4.1942300844     6.6763531296    -3.4125781982
 Xe    -1.0918969987    -4.8936332442    -6.8034570683
          3
Energy: -0.6296930164837515 Kcal/mole
 Xe     5.9671089165     2.7793640614    -1.8980967681
 Xe     4.9672171500    -1.3547908961    -5.9150070550
 Xe     3.4691396474    -0.0779773415    -0.1388986917
          3
Energy: -0.996698329438996 Kcal/mole
 Xe     3.0965374157     0.9385165890    -0.2349622565
 Xe     2.7818931042     3.7673582618     4.4051606856
 Xe     4.0710879512     5.6059376471     0.6495266228
          3
Energy: -0.8969712224010189 Kcal/mole
 Xe    -4.0614565258     3.4328340757     0.5930176192
 Xe    -3.9967142828     3.7484295207    -3.7107856465
 Xe     0.4787421407     5.3289576213    -3.3226183715
          3
Energy: -0.8475508990190999 Kcal/mole
 Xe    -0.7403875885    -0.8767001866    -2.6988897149
 Xe     0.3450688306     6.5323960419    -3.2135957946
 Xe    -0.8321693759     3.2810556066    -0.4142077419
          3
Energy: -1.1150331793349189 Kcal/mole
 Xe     2.2170976846    -6.4662391846    -4.0681266977
 Xe     5.8631292668    -3.2024314107    -5.5125106289
 Xe     6.3579456012    -7.3785703532    -4.9374018023
          3
Energy: -1.2192040713661794 Kcal/mole
 Xe    -2.6863109952    -7.2997463008    -5.8797189906
 Xe    -1.6131144186    -5.8021580324    -1.7819611710
 Xe     0.3551608394    -4.1772275275    -5.8739809461
          3
Energy: -1.2989736930810927 Kcal/mole
 Xe    -2.7268573793    -7.4381963256    -5.7668351803
 Xe    -1.7150453320    -5.6708965625    -1.8523873363
 Xe    -0.1529180354    -3.8559441437    -5.5678763329
