          5
Energy: -2.8855884832860133 Kcal/mole
 Kr     6.0964883195    -2.2347412619    -1.6933568407
 Kr     2.2331200095    -2.8202529665    -2.8132849942
 Kr     8.0750090944    -5.7981764140    -1.8025687419
 Kr     4.1774750564    -5.6790691495    -0.6766086216
 Kr     5.1999310701    -4.9800814307    -4.5543822311
