          5
Energy: -0.06126702543658832 Kcal/mole
 Kr     4.0140440217    -1.9939882133    -0.8808663833
 Kr    -3.1503750216     5.1055343933    -4.1569637596
 Kr    -0.9909588360     0.1706851329     4.8255448624
 Kr    -4.6781836248    -3.2108488002    -1.3608255622
 Kr     4.8473148221     4.7628118467     5.4213753783
