          5
Energy: -0.39148474545681655 Kcal/mole
 Kr     2.6606451984     6.6770418089    -2.6805443960
 Kr    -0.1079811733     6.3328192530     3.1422043728
 Kr    -6.9033095723     3.3863554507     2.5201451143
 Kr    -1.4844137556     5.4804934680    -6.9116659722
 Kr    -1.7256856841     6.4333486496     7.3036395721
          5
Energy: -0.5712186158889924 Kcal/mole
 Kr    -0.3269864424     1.7202178856     6.1290130291
 Kr     1.6464432852     0.2840074213     2.9262802951
 Kr    -4.8466354631    -1.7589549464    -6.1480474178
 Kr    -1.8836177928     6.4315827196     2.0596900981
 Kr    -3.5302921625    -2.9183650579    -1.5496747390
          5
Energy: -0.7216526978663225 Kcal/mole
 Kr    -1.9120470952     1.1414889748     6.4162204078
 Kr    -8.0447905213    -2.800007E-40     7.4017377471
 Kr     0.7232801222     6.6298587474    -2.8509884567
 Kr    -5.5842841231     6.9425750224     2.2573011373
 Kr    -4.2553464650     4.1502293179     5.3339644617
          5
Energy: -0.822247268281683 Kcal/mole
 Kr    -3.5521463662    -1.1927434111     1.7229768655
 Kr    -5.3010995063    -2.8978025125    -1.5354557273
 Kr     3.1635454275    -2.5185084158    -7.0456434882
 Kr     2.4159724231    -4.5632618507    -3.9446335165
 Kr    -6.5655264308    -3.7684748932     4.3258687299
          5
Energy: -0.7459293776229478 Kcal/mole
 Kr     2.4203468636    -0.2623452045    -1.1972234042
 Kr    -0.1812468143    -5.4888857072    -4.3718840768
 Kr     2.9110859300    -1.3207911119    -5.7938900213
 Kr     2.3437795782    -3.5769741175     2.2531031500
 Kr    -4.6211245606    -7.0294736978    -5.7045305747
          5
Energy: -2.2110734044573204 Kcal/mole
 Kr     3.3878122477    -6.3502757433     0.8023117216
 Kr     6.2201325372    -7.8809846972    -1.3866318422
 Kr     4.0696595592    -4.2515390282    -3.2648278045
 Kr     7.2992997642    -7.6667919178     2.7622027937
 Kr     2.6283409722    -8.1789926171    -2.8869962248
          5
Energy: -2.327814483848033 Kcal/mole
 Kr     2.4423310909    -0.9135045927     0.9882432730
 Kr     4.5411445898    -1.0315146839    -2.4234007286
 Kr     5.4052434416    -4.1738102737     0.0155537533
 Kr     8.1874793559    -2.6347624765    -2.8441553213
 Kr     7.1788052221     0.6559228674    -0.2169232225
          5
Energy: -2.554887755424677 Kcal/mole
 Kr     5.7862099290    -5.7195062580    -1.1495886668
 Kr     2.7269860236    -3.0916289934    -3.4953223632
 Kr     7.3878498842    -7.6029985781    -4.5924164224
 Kr     3.3338957702    -7.0941738395    -4.3356605857
 Kr     6.7509478509    -3.3761224852    -4.4493834765
          5
Energy: -2.7227484735917087 Kcal/mole
 Kr     6.1003583097    -2.3009231121    -1.5526424173
 Kr     2.1431639695    -3.0646628617    -2.8840488918
 Kr     8.1721449750    -5.4637817309    -1.6254787541
 Kr     4.2347077856    -5.5544247454    -0.4732091916
 Kr     5.2340627632    -5.0109820160    -4.5530813351
          5
Energy: -2.8855884832860133 Kcal/mole
 Kr     6.0964883195    -2.2347412619    -1.6933568407
 Kr     2.2331200095    -2.8202529665    -2.8132849942
 Kr     8.0750090944    -5.7981764140    -1.8025687419
 Kr     4.1774750564    -5.6790691495    -0.6766086216
 Kr     5.1999310701    -4.9800814307    -4.5543822311
