          6
Energy: -4.028507311279354 Kcal/mole
 Kr     5.8175915990    -1.0376523028    -4.9803237863
 Kr     8.6820536088    -2.8663231124    -7.1714726197
 Kr     5.8883392194     2.1036128962    -7.5155070821
 Kr     5.2346839405    -1.6473406543    -8.9444547919
 Kr     8.7206194268     0.2535994291    -9.7513303732
 Kr     9.3080355099     0.8762824179    -5.7704669558
