          6
Energy: -0.5000025587097983 Kcal/mole
 Kr     5.5573150144     7.0104987351     6.9200288529
 Kr     2.0842321149     0.3189958294    -8.9103137150
 Kr     4.9992816361     3.1570829660     3.9996153999
 Kr    -9.4971490889    -5.8360520782    -4.0067813778
 Kr    -5.7431863167    -5.0992510258    -5.0271394302
 Kr    -4.2737500137     5.2218714490    -5.3105543866
          6
Energy: -0.9031601087317778 Kcal/mole
 Kr     1.4130640984     3.1223850022    -1.3707626449
 Kr     5.6637739298    -3.3687672665    -5.8754405718
 Kr    -4.3130357748    -2.0645809189    -8.2532865900
 Kr    -8.0835310805    -6.8890693224     8.4595484048
 Kr     4.2090084126     1.7741489504    -4.0517150414
 Kr    -0.4101492893     3.4342460965    -4.8956426050
          6
Energy: -0.3938871653202539 Kcal/mole
 Kr    -7.7284771465    -5.0694427371    -5.4024378632
 Kr    -4.0345210864     2.7619433497     0.6304900029
 Kr     1.0370315565     9.2355550303    -6.2634548370
 Kr     1.1574506101     2.4749857078    -3.3839781193
 Kr    -0.0130287637     4.6934135882    -6.0758600859
 Kr    -6.6162950172    -3.0443517279     6.9226804605
          6
Energy: -0.3077439752845837 Kcal/mole
 Kr    -7.5625754955     8.3840225914    -9.7256714499
 Kr    -6.5119795708    -6.3029893495    -1.1450503942
 Kr    -7.6878301618     3.7381389552    -9.6235002756
 Kr     6.9680891836    -2.2912638830     2.2942618852
 Kr    -4.0451248377     7.2202591120    -4.0730016748
 Kr    -7.5349418064    -9.4572146233     4.3512887443
          6
Energy: -0.9083650628781396 Kcal/mole
 Kr     2.3079717575     1.6843212248     7.0691182272
 Kr    -0.8029463527     0.9317205121     9.7262654006
 Kr    -7.6604819632    -5.2182221851     6.1101130897
 Kr     2.3013637122    -9.3578039236    -6.7290054633
 Kr    -5.1044899575    -8.2039028632     3.0079055440
 Kr    -7.4786838112    -5.5736089613     1.9706763433
          6
Energy: -2.0732836237726575 Kcal/mole
 Kr     6.3702575770    -4.4021215984    -3.8783275198
 Kr     9.3268347077    -4.7988561125    -0.7192420452
 Kr     7.4501143361    -1.2640365561    -1.0912657218
 Kr     8.9600155889    -2.6412908091     2.5138992574
 Kr     9.9288868920    -2.9243526354    -7.3887365669
 Kr     8.6775977677    -8.4656810644     0.2620229345
          6
Energy: -3.134347501012106 Kcal/mole
 Kr     2.3965422036    -6.0919606547    -6.9069115885
 Kr     2.6813633220    -4.6234378733    -2.8375523514
 Kr     6.0642157750    -5.6348500532    -4.3506263839
 Kr     3.5962698803    -8.7339619307    -4.4527674553
 Kr    -0.5520948239    -8.2984625725    -5.5657231555
 Kr     1.1692877470    -8.0342801334    -0.9535447362
          6
Energy: -3.5346372114930196 Kcal/mole
 Kr     6.2407836368    -4.8104669551    -3.6580613722
 Kr     3.7854436008    -1.3490077676    -2.6979849528
 Kr     7.5760100823    -1.6317840497    -1.6615870176
 Kr     8.2497100554    -5.1363315483    -0.0970099703
 Kr     4.4468578207    -4.5539458481     0.2897407129
 Kr     6.4232488859    -1.8957044532     2.1434122294
          6
Energy: -3.848870038312541 Kcal/mole
 Kr     1.9832620698    -6.6784115985    -2.7301836543
 Kr     0.3197568759    -2.8054797079    -2.9459079453
 Kr     4.2969757441    -3.3552096416    -3.4668348090
 Kr     5.1465494125    -5.2128846407    -0.0792802322
 Kr     1.3318666143    -4.5902803425     0.7616402463
 Kr     3.0899850444    -1.2480389571    -0.2899815192
          6
Energy: -4.0276874260051105 Kcal/mole
 Kr     2.2536584936    -6.5818456153    -2.7635067407
 Kr     0.3784813773    -2.9884259768    -2.7819858556
 Kr     4.3184881084    -3.2489734485    -3.7704243685
 Kr     5.1014814725    -5.1537487736    -0.2501688742
 Kr     1.1780505313    -4.8834954967     0.7308392252
 Kr     3.2258256310    -1.5553068982    -0.2543045276
