          6
Energy: -3.897738281929853 Kcal/mole
 Kr     1.9815679478    -1.6217823765    -2.0494582735
 Kr    -3.7613412331     0.2913826077    -5.0326897506
 Kr    -2.0780718474    -1.9337736611    -2.0845163148
 Kr    -0.2843207503     0.5330138022     0.5801021838
 Kr    -0.2565064754     1.4699345638    -3.3815013310
 Kr    -3.6849548298     1.7111619602    -1.2449024645
