          5
Energy: -0.04256829128965419 Kcal/mole
 Ar    -3.2114890856     2.5992704242     3.5069917566
 Ar    -0.4747132671    -5.4855734890     2.5801625741
 Ar     4.3692474313    -1.2537978365     5.1081751345
 Ar    -1.5137689632     3.4415465991    -3.7872888126
 Ar     4.1994359661    -3.7144757310    -3.2559364498
