          5
Energy: -2.128965982246753 Kcal/mole
 Ar     4.3370064408    -0.1296963660     5.5904567318
 Ar     2.8485862545     2.8094658299     7.5247271823
 Ar     6.0101669440     1.1911514062     2.4228474199
 Ar     6.1210863816     3.2748200185     5.6086538920
 Ar     2.8253752880     2.8371051050     3.7160335457
