          5
Energy: -0.20520888658059094 Kcal/mole
 Ar     3.8635480772    -2.7758239446    -2.4961444964
 Ar    -6.5707719479    -7.3874361100    -6.4720869733
 Ar     3.0943570120    -6.0906711924    -1.2593269463
 Ar     4.2443652534     7.0673444806     2.0257112124
 Ar    -6.2523491621    -3.5982536346     4.9535725378
          5
Energy: -0.19569687199202201 Kcal/mole
 Ar    -6.6939277192    -7.7929097936    -3.0891485799
 Ar    -4.9726021483     4.1305161163     7.3635766258
 Ar     6.2336042014     3.5499638287     4.8003619453
 Ar    -5.2525795294     3.5412116788    -3.7381150854
 Ar    -3.8753477621    -7.9479946017    -0.8536684465
          5
Energy: -0.1957052657754004 Kcal/mole
 Ar    -5.6029228623    -6.6323303178     5.3658254166
 Ar     6.3279864224    -6.5356814667    -4.1199792165
 Ar    -0.1945258941    -6.6485873474    -8.0058577378
 Ar    -0.9065784469    -7.0688098124    -1.4280117263
 Ar    -2.4946497203    -4.2974514589     0.0396470292
          5
Energy: -0.1414996205850553 Kcal/mole
 Ar    -7.8651777963     0.5503978319     2.0232185419
 Ar    -5.2991293810     4.8671357061     0.8520378881
 Ar    -1.0164570818    -6.2675413179     5.4534150729
 Ar     5.4214857591     7.1242115823    -5.7201612776
 Ar    -6.2017520864    -5.4877531149     3.7787699873
          5
Energy: -0.4861275067522809 Kcal/mole
 Ar     6.7720222324    -4.6255340252    -0.3423347413
 Ar     5.5312703486    -2.7522473832    -3.5197313727
 Ar    -2.4336131021    -1.2772187181    -6.0244979059
 Ar     5.4653490170     7.4109749791     6.9235151443
 Ar     2.8789770506    -5.5068994928     0.6149924301
          5
Energy: -0.3700861582024146 Kcal/mole
 Ar    -1.0804870184     3.8635867369    -1.3788980067
 Ar     1.1132313837     7.6984199978    -1.7993964068
 Ar    -2.1494224162    -2.0434617778    -3.6471329685
 Ar     1.9270579106    -2.3594678191    -2.5112546804
 Ar     1.5062976608    -4.3120657777     7.9200281339
          5
Energy: -1.671506391172378 Kcal/mole
 Ar     1.4065811531    -3.0389458504    -4.0343321643
 Ar     1.5667985956    -0.6570640688    -6.7971232989
 Ar     1.7282435583     1.9702385116    -4.0665542100
 Ar     4.6040395581    -1.0836984354    -4.6445515540
 Ar     4.4080519799     2.3228119438    -7.5779648645
          5
Energy: -1.9535986484863206 Kcal/mole
 Ar     1.7488008305     3.6910697265     1.1819217078
 Ar    -0.0771479747     1.2941751038    -1.7189075496
 Ar     3.2834031679     2.9091677237    -2.6580182834
 Ar     3.5687166387     0.5291571881     0.3531270615
 Ar     2.6151291611    -1.0578031431    -2.8733055321
          5
Energy: -1.9755289344066584 Kcal/mole
 Ar     4.6403384906     6.7072828324     1.3604247172
 Ar     6.1072669921     3.4277172093     0.3008001893
 Ar     1.9609137846     4.0421418681     0.8017922650
 Ar     4.4803876115     5.6629377220    -2.2778118444
 Ar     3.3331651603     1.7362080335    -2.0052397105
          5
Energy: -2.128822225383926 Kcal/mole
 Ar     4.7134664690     6.6891323820     1.3743907912
 Ar     5.8030099288     3.2585897906     0.1449945024
 Ar     2.0947772255     4.0238601666     0.6432996734
 Ar     4.0183693293     5.6347990826    -2.2312101382
 Ar     3.2233507506     1.9110357413    -2.3366497006
