          5
Energy: -0.08550877407117269 Kcal/mole
 Ar    -2.7284762071     7.5155438441     2.4802037499
 Ar     4.7770390715    -5.9460654918    -6.4998143643
 Ar    -4.0549179041     0.5458666601    -7.6466285737
 Ar     7.3280077685     2.7839505349     7.9656709357
 Ar    -6.5157384074     4.8387524590    -6.8563729471
          5
Energy: -0.05977945851875589 Kcal/mole
 Ar    -0.6104813863     3.1494249600    -5.1376897158
 Ar    -7.7160146202     1.5898520682    -4.5133242212
 Ar     5.0144814954     6.1732315813    -5.9747021344
 Ar    -0.0650698137    -2.9604422052    -4.5890396658
 Ar    -6.2979015944     7.1516626095     7.5727833204
          5
Energy: -0.29143956949381805 Kcal/mole
 Ar    -7.2355314485     4.6842156998     4.1366124054
 Ar     3.2596727864     0.6836945246     1.4420178470
 Ar    -2.6835745925    -7.8833864622    -6.9380693428
 Ar    -1.7196600668     0.4719474997    -0.3311164074
 Ar    -2.5039232814    -8.1363134531    -2.9519534124
          5
Energy: -0.4416535730731883 Kcal/mole
 Ar    -2.3080914050     1.6783130395    -1.5572555713
 Ar    -1.6878263605     0.4828161982    -5.3240019138
 Ar     2.0256147878    -1.0997125329    -3.8043125093
 Ar    -5.3699091735    -0.0555565437     7.6931734532
 Ar     6.1601820896     0.2874340895     3.9507255777
          5
Energy: -0.07377739082980417 Kcal/mole
 Ar     0.3248688359     3.6794219398     2.5212322362
 Ar     1.5511529661    -4.0871766249     3.7362392553
 Ar     5.2390452060     0.6744977156     3.7610455395
 Ar    -5.0458292104     7.4585421409    -5.2098809516
 Ar    -6.3882550605    -3.8694399937    -1.0848822357
          5
Energy: -0.10871461849289796 Kcal/mole
 Ar     6.3537360223     3.3962460257    -5.3498526831
 Ar    -6.8852572732     6.6266494880    -1.6429381372
 Ar     7.7585410414    -0.8444175765    -3.3316151347
 Ar    -6.0794938645     2.3003499807     7.4114144778
 Ar     0.0937525596     4.3020128147     4.6268189475
          5
Energy: -0.3421005368266517 Kcal/mole
 Ar    -4.9967690461    -3.8542035857    -2.5843804346
 Ar     1.3460092664     7.4799107919     1.9143524751
 Ar     3.3465411059     4.3107643238     4.7542621399
 Ar     3.3595379438    -3.1499081930     2.9502239472
 Ar     1.5127231067    -5.9030960326     0.5731493295
          5
Energy: -0.7316403342350937 Kcal/mole
 Ar     7.3741954119     2.1981298824    -0.6150299130
 Ar     4.0279725163     3.9894677385     0.6264355240
 Ar     7.0067683103     6.2732764569    -1.0165010918
 Ar     1.4942633179    -7.9671100939    -8.2324419363
 Ar     0.6238102462     2.5299978274     3.8388825321
          5
Energy: -1.6381450706556833 Kcal/mole
 Ar     4.6037449050    -0.3422078372     6.0134563294
 Ar     2.3482411743     2.7304758035     7.6533824654
 Ar     6.0118742465     0.8161700229     2.3916410071
 Ar     6.0283235290     2.9877496127     5.3006264479
 Ar     3.0410314071     3.6124427913     3.3488608538
          5
Energy: -2.128965982246753 Kcal/mole
 Ar     4.3370064408    -0.1296963660     5.5904567318
 Ar     2.8485862545     2.8094658299     7.5247271823
 Ar     6.0101669440     1.1911514062     2.4228474199
 Ar     6.1210863816     3.2748200185     5.6086538920
 Ar     2.8253752880     2.8371051050     3.7160335457
