          12
Energy: -46.09586492272365 Kcal/mole
 H     -5.8280833237    -1.7887667313    -2.7819791416
 F     -5.5278002607    -1.8126047001    -3.6480916247
 H     -2.8163736506    -4.0996123453    -3.3141573218
 F     -2.7722218562    -4.9254937908    -2.9181024556
 H     -5.0047193276    -4.5679030133    -0.1779722658
 F     -5.8674614322    -4.2588347531    -0.1456942313
 H     -3.9438574374    -2.2373273510    -3.8618765373
 F     -3.0843623158    -2.5569447348    -3.8632418171
 H     -3.1303553686    -5.0175374643    -1.3070193721
 F     -3.4243232438    -4.9662554089    -0.4399311187
 H     -6.1360355781    -2.7372496877    -0.7470464210
 F     -6.1800609057    -1.9227585048    -1.1660391220
