          12
Energy: -46.10293250203753 Kcal/mole
 H     -0.4184109561    -3.6022332039     1.1250610004
 F     -1.1994969377    -3.7423518333     0.6655390106
 H     -1.1086133112    -1.0972156855    -1.6929029355
 F     -0.4344334148    -0.8206042756    -2.2495505755
 H      2.5031567366    -1.5101229248    -0.3494968093
 F      2.7578510475    -2.2628541072     0.1081226560
 H     -1.8919281521    -2.4473625172    -0.0943481696
 F     -2.1402590861    -1.6850059632    -0.5393574188
 H      1.0179487615    -0.3755762422    -1.5920550525
 F      1.7991676215    -0.2312823421    -1.1340535643
 H      1.7139331383    -2.8718627613     1.2431447082
 F      1.0354091132    -3.1601930121     1.7884517903
