          12
Energy: -36.210878268378934 Kcal/mole
 H     -5.0159736392     3.6326071910    -5.7712547085
 F     -4.6014026160     3.0867134703    -6.3803687474
 H     -1.1637970255     3.2684367642    -5.3825591992
 F     -1.1463020522     3.9984485491    -4.8278829695
 H     -3.1077116205     6.5163586703    -6.5622097875
 F     -3.8689499289     6.4325882172    -6.0578411237
 H     -2.6801403198     2.6070956755    -6.6666563006
 F     -1.7926909552     2.3961044591    -6.7604930297
 H     -1.2187304156     5.1928363375    -6.0784921106
 F     -1.1559241474     5.7231456445    -6.8239560009
 H     -4.9826113145     5.4573379002    -4.7588829357
 F     -5.4341174960     4.7901927088    -4.3207637035
          12
Energy: -36.51724253493953 Kcal/mole
 H     -4.7637257045     5.7107622689    -2.6027442054
 F     -5.0654145415     4.8671205036    -2.4074459275
 H     -1.9698056989     3.3914330323    -1.6668665376
 F     -1.2710253858     3.2350141166    -2.2396912899
 H     -1.7410820641     6.1497373853    -5.0225802523
 F     -2.1984775879     6.8861265156    -4.7235662334
 H     -4.1423419867     4.2217160325    -1.1726032889
 F     -3.3722264829     4.0657669536    -0.6998549461
 H     -2.2231567714     3.3840144958    -4.1633785996
 F     -2.2861593370     4.0513070068    -4.7891903776
 H     -3.7498328202     7.0673569462    -4.1566576445
 F     -4.5268137725     7.0592363012    -3.6697042023
          12
Energy: -37.18290083079518 Kcal/mole
 H      2.5798491073     5.2046248711    -0.0241563838
 F      2.3366013897     5.4298693739    -0.8791326769
 H      1.7160100895     2.9892710322    -2.4291741430
 F      1.8398835699     2.1391145276    -2.1085836276
 H      4.1140808273     1.8124020324     0.3020169420
 F      4.4760379737     2.6297438550     0.5065367924
 H      1.9533746973     5.0417398011    -2.4346269828
 F      1.8335172198     4.4523532691    -3.1268312165
 H      2.2128621212     0.7127814773    -0.7318534545
 F      2.6734727809     0.6557453581     0.0590154988
 H      3.4263513172     4.1643077697     1.0901789043
 F      3.1052460800     4.9741456452     1.3764358554
          12
Energy: -35.7061854453633 Kcal/mole
 H      2.6841007152     5.7220259111    -0.5981086821
 F      3.2535975589     5.0616575733    -0.8817916095
 H      7.2059630686     5.3991291707     0.8945545696
 F      7.0279533964     5.3807129943     1.7939223482
 H      3.4437657667     6.5633645140     2.7203814428
 F      2.5429807145     6.3959423236     2.6823669716
 H      4.8130386636     5.2785803874    -0.8233203220
 F      5.6859836123     5.3755404158    -0.5597774042
 H      5.7365417877     6.3614796177     2.6980960200
 F      4.9759467336     6.7092803183     3.0741529788
 H      1.9253711913     7.4133083733     0.8570117761
 F      1.6939305688     7.0069287711     0.0682279925
          12
Energy: -37.368371807539035 Kcal/mole
 H      1.0885971322     2.3421142847     5.8890608057
 F      0.5647619200     2.5827388935     5.1759090210
 H      2.3917611852     5.1547707947     2.5872662970
 F      3.1312239433     5.4250875136     2.1171464176
 H      5.6733250742     4.3280839702     5.5848311150
 F      5.5282477281     3.4227782630     5.5686095194
 H      0.8727210696     3.9672366006     4.1997113566
 F      1.0500285561     4.7242643247     3.7135425791
 H      4.2393494376     6.0711346292     3.2975105858
 F      4.6838442849     6.1862047286     4.0912814614
 H      4.0936668735     2.8753014091     6.1102415033
 F      3.2173002604     2.6698918878     6.2853914044
          12
Energy: -38.93460804715855 Kcal/mole
 H      4.1018635746    -0.2560077552     3.0554407142
 F      4.1144810458     0.5239897561     3.5374507574
 H      6.5510949757     1.1925425117     0.7923897784
 F      6.7090777669     0.8815953942    -0.0556917789
 H      5.3403762272    -3.3933696258     0.6505785010
 F      4.9597651196    -4.0392595437     1.1786413749
 H      5.4677282499     1.1812338230     2.9626287045
 F      6.2321653692     1.4937133439     2.5640293574
 H      6.4958567954    -0.9251484916    -0.2247337261
 F      6.4814694329    -1.7984867379     0.0544835933
 H      4.1510546777    -3.0286049533     2.2386905378
 F      3.8046338460    -2.2294507774     2.5254556167
          12
Energy: -36.83708496593448 Kcal/mole
 H      4.4275603560     3.4617840709     4.2494965574
 F      4.3967562021     3.2509706649     3.3575897170
 H      0.8560176330     3.9770114846     2.0268160747
 F      0.1506696371     4.1116785479     2.5971124772
 H      0.3780166989     4.7567365268     5.7850011916
 F      1.0986705867     5.3167600248     5.6960031257
 H      3.4480532960     3.6754990769     1.8903778457
 F      2.7815656423     3.6156752913     1.2633975253
 H     -0.7284051952     3.6299965052     4.3146044557
 F     -0.8329329641     3.4426182270     5.2061493656
 H      2.7214529850     5.1057056121     5.5653759738
 F      3.6277806745     5.0887281069     5.4269170139
          12
Energy: -40.10263975205417 Kcal/mole
 H     -2.0053637288     2.0209180328     1.3315456409
 F     -2.1387655697     1.3009841081     1.8836218069
 H      2.0140164718     0.1796791611     3.6752915456
 F      2.8233180094     0.4643186801     3.9991748048
 H      1.5757956711     3.8935541745     2.1686757014
 F      0.9426337268     4.3985618496     1.7386033815
 H     -0.8450200482     0.8666505774     2.7916392167
 F     -0.0646999590     0.6959936705     3.2420454539
 H      3.0001638803     2.2923292666     3.4471826103
 F      2.7771919339     2.9109518728     2.8080593183
 H     -0.8095660176     4.1320352083     1.0127811492
 F     -1.5357789058     3.6255728276     0.7740350542
          12
Energy: -36.70709793492085 Kcal/mole
 H     -0.3804751187    -0.6081523061     2.1620734794
 F     -0.2862321023    -1.3194415085     2.7331031847
 H     -3.3341400815    -1.2926465970     4.5750710524
 F     -3.6834277562    -0.5432983389     4.9717627568
 H     -2.5345763553     2.0017050114     5.0463548306
 F     -2.5063113560     2.5536132484     4.3145847931
 H     -1.6523103181    -2.3816081935     3.6034494006
 F     -2.5235375289    -2.6348466678     3.7365749889
 H     -3.1381371402     0.3514692504     6.1932230709
 F     -2.8203060553     1.1607411746     6.4846872268
 H     -1.2565626248     1.9483242343     2.8919578179
 F     -0.8947748479     1.5266262536     2.1624583885
          12
Energy: -39.98369439252646 Kcal/mole
 H     -0.9719746058     0.8967355536     1.3882237420
 F     -1.7485531501     0.5222789536     1.7006289585
 H     -3.8073105203     3.5429861572     2.5705804410
 F     -3.5338754204     4.2555470739     3.0788905688
 H      0.6453025262     3.1049888503     3.0750218410
 F      1.2130938697     2.3849193361     3.0736488311
 H     -3.2938995294     1.3227247900     1.6336300353
 F     -3.9265302778     1.9865521662     1.6328878319
 H     -2.0093142177     3.8246834681     2.8667811857
 F     -1.0964945547     3.8913643316     2.8101867940
 H      0.7853785855     1.6676648132     1.6268999852
 F      0.3385445517     1.5372556400     0.8368229043
          12
Energy: -42.09281810735307 Kcal/mole
 H      0.3752787484     4.0307281019     5.7948262683
 F      0.7610075028     4.6005614097     5.1886972973
 H      4.8297980522     4.1990269070     4.7536281239
 F      5.5867092246     4.0105143960     5.2357458587
 H      2.8257344498     2.3886761945     7.2490498581
 F      1.9564529868     2.1759529932     7.4490188000
 H      2.4064778302     4.8202226067     4.6124065681
 F      3.3041470401     4.7430279727     4.4417608004
 H      5.0035701036     3.3169394779     6.6533414839
 F      4.4648475348     2.8646237710     7.2416249998
 H      0.4181234385     2.5509840798     6.9719233494
 F     -0.3293457335     2.8254014187     6.5170893565
          12
Energy: -41.75722588704416 Kcal/mole
 H     -5.8742230396     5.9231123207     5.6087002268
 F     -5.0382389467     5.6005751639     5.8036088693
 H     -2.1962933599     6.3797346448     4.5371555964
 F     -1.9698208677     5.9771587438     3.7449865146
 H     -5.1403716801     7.0624569007     2.4544338606
 F     -6.0135544158     7.0885468950     2.7332890601
 H     -3.8661948067     6.6958660520     5.6039334896
 F     -3.2947025083     7.4004248442     5.4702081698
 H     -2.8886062240     6.6970189103     2.2887116799
 F     -3.6249999270     7.0023749830     1.8355329260
 H     -7.0137526776     6.8810307371     4.1178525241
 F     -7.3000682819     6.7952316963     4.9847728776
          12
Energy: -39.564832169837686 Kcal/mole
 H     -6.6243960007     6.8585854845     5.7595590317
 F     -5.9705634964     7.1874288923     5.2070610050
 H     -4.0850663619     3.8630115366     2.8747005749
 F     -4.1999290634     2.9801159070     2.6551763919
 H     -6.0492239601     3.0877889155     5.6260272924
 F     -5.7346233649     3.8400941009     6.0454940653
 H     -4.6924858885     6.1493608434     3.8640260353
 F     -4.3421618691     5.5502145504     3.2647049186
 H     -5.1644462691     1.9113247322     3.8638171003
 F     -5.8586096587     1.6509440336     4.4034726203
 H     -6.8089294861     5.0840145728     6.9095645912
 F     -7.3646700621     5.8080495976     6.9979653551
          12
Energy: -40.70904739858956 Kcal/mole
 H     -6.0722928754     0.7865472808     0.3668425540
 F     -5.7969690365     0.7132187997     1.2384552648
 H     -3.3985229559    -0.9509439349     0.3107248072
 F     -3.7038088465    -1.7841081716     0.0793660388
 H     -6.6380807111    -2.1115236939    -1.6850007358
 F     -6.7644428986    -1.6157253213    -2.4459905986
 H     -4.1498400466     0.6346736714     1.0829604798
 F     -3.2658587481     0.3984025565     1.1433096652
 H     -5.2957972662    -2.4542927957    -0.1049624882
 F     -6.1400499877    -2.7172759282    -0.3477920875
 H     -6.7621176840     0.2642061337    -1.8122927174
 F     -6.5296717684     0.9464641520    -1.2453871760
          12
Energy: -43.051553574240074 Kcal/mole
 H     -3.7465522422    -4.6007009763     8.949945E-40
 F     -4.5047916753    -4.9713432703    -0.3576942580
 H     -4.0210239658    -5.1723122504    -4.1107039758
 F     -3.9795316469    -4.5231925982    -4.7570870392
 H     -2.0088909500    -2.6524041290    -2.4909783430
 F     -1.3802675759    -2.8986586389    -1.8704299002
 H     -4.2590349373    -5.7862254613    -1.6787887820
 F     -4.1278377597    -6.0252664479    -2.5543090316
 H     -3.3656243645    -2.8473995010    -4.1819352979
 F     -3.1387610648    -2.1974004732    -3.5761933503
 H     -1.6335792638    -3.7828067395    -0.3607015280
 F     -2.1131395483    -4.1217929905     0.3435706176
          12
Energy: -40.73896773585115 Kcal/mole
 H     -2.8145769895    -4.5818053595     2.3703514437
 F     -2.9854980138    -4.2475746232     3.2069904450
 H     -1.9659955815    -0.7547813785     2.8400302944
 F     -1.9151504892    -0.4345314715     1.9822752165
 H     -0.2858317931    -2.5096622364    -0.1429105774
 F     -0.5944871173    -3.3729852651    -0.1257571812
 H     -2.6145122401    -2.6448932969     4.0299365150
 F     -2.3050480156    -1.8377281412     4.3358863561
 H     -0.8791753889    -0.6977780904     0.4747628841
 F     -0.1376202772    -0.8286025923    -0.0485629859
 H     -1.1732833836    -4.7985455925     0.7532130405
 F     -1.7887940595    -5.3115802656     1.1991177749
          12
Energy: -42.71096477377027 Kcal/mole
 H     -1.6802309024    -3.0240088733     3.4419620978
 F     -1.5060441490    -3.3563869661     4.2786656166
 H      1.0535463963    -2.4199094728     6.1802715321
 F      1.7342906887    -1.9231155104     5.8187857546
 H     -0.1266256296    -0.1171344690     2.7074727418
 F     -0.6977818625    -0.1894267243     1.9937197120
 H     -0.6349277148    -3.5029507941     5.6173711458
 F     -0.1445577760    -3.5163148535     6.3921277044
 H      0.9193892427    -0.7859101090     4.9468576492
 F      0.6823726058    -0.1862212517     4.2948719221
 H     -1.7888559441    -1.4849623727     1.8963489632
 F     -2.2010885775    -2.2817209913     2.0864251572
          12
Energy: -44.05798205204964 Kcal/mole
 H      0.2618952945     2.1568437605     4.0582384150
 F      1.1206892901     2.1004314939     4.3747499143
 H      3.0005473252     2.0407997202     0.7917046965
 F      3.0094654058     2.0819579538    -0.1243277634
 H      0.1469440321     3.9009342963     0.6309581084
 F     -0.2167003231     3.9597622382     1.4707146542
 H      2.4016573245     2.2303126547     3.2732896246
 F      2.9099318630     2.2177467146     2.5101460662
 H      1.9161943244     3.1580372574    -0.6087345277
 F      1.1722003314     3.6848828259    -0.7077076825
 H     -1.1783854703     3.0527950185     2.7431428028
 F     -1.2881996350     2.3856727080     3.3626407221
          12
Energy: -41.709673701551594 Kcal/mole
 H     -1.3130768806     5.9375084228    -1.6627272789
 F     -0.7340626588     5.7473584177    -2.3479093763
 H     -1.4003770836     3.9348608160    -5.0149919971
 F     -2.1375361452     3.4501908822    -5.2651530912
 H     -4.6328742399     6.1859701542    -3.3555783411
 F     -4.6751725404     6.7033397471    -2.5996494039
 H     -0.6215896709     5.4880070486    -4.0088466051
 F     -0.5050767467     5.3003734549    -4.8988507472
 H     -3.3958046958     4.4292203031    -4.9000473198
 F     -4.0197646027     4.9315299099    -4.4536751730
 H     -3.4946930271     6.1738347351    -1.2936049120
 F     -2.7541289626     5.9427784476    -0.8046602747
          12
Energy: -39.81497797339168 Kcal/mole
 H      0.8930465561     4.4974270856    -3.2114960255
 F      1.1099582507     4.9586103640    -3.9738268595
 H     -2.4403047770     3.7237775337    -6.5311569880
 F     -3.3232449011     3.9440121143    -6.4180090019
 H     -2.7759309480     3.9092995562    -2.3876069025
 F     -2.3632481956     4.2736380603    -1.6542315550
 H      0.1968070131     4.3812938520    -5.2271030411
 F     -0.4628136886     4.0471524639    -5.7694489295
 H     -3.7876228908     3.8292599659    -4.7801525699
 F     -3.7661084607     3.8619679187    -3.8639886549
 H     -0.8226016933     3.5229912931    -2.0126938587
 F     -0.0195352936     3.2771138556    -2.3808210696
          12
Energy: -42.13384477778348 Kcal/mole
 H      6.1036636872     3.5214026749    -4.2453755359
 F      6.0053874587     3.7889366443    -5.1169582102
 H      2.5109664304     4.4864866417    -3.6080280407
 F      1.9253170479     4.2212257533    -2.9541622579
 H      4.1892509012     4.8866903481    -0.6271311922
 F      5.0769474622     4.8083524198    -0.8433417022
 H      4.5312724809     4.5672985763    -5.1067215459
 F      3.7335618146     4.8660349937    -4.7671582294
 H      2.0528512617     4.8473648130    -1.2224135640
 F      2.3611259675     5.3126690282    -0.4948507192
 H      5.7646772028     3.5411404486    -1.8660048311
 F      6.1260281542     3.1663231504    -2.6208733514
          12
Energy: -42.15398728064916 Kcal/mole
 H      2.8286137438     5.1702583585    -5.3407522570
 F      3.1041532184     5.8771317569    -5.8558221519
 H      2.9720247432     6.7792275448    -2.6161239747
 F      2.6363039495     6.3881404054    -1.8576838663
 H      2.7709858327     2.7754252142    -1.6327750358
 F      2.6085641580     2.2346308804    -2.3553050961
 H      3.6409436191     7.0626961665    -4.7106416223
 F      3.8667084930     7.4454909099    -3.9085272874
 H      2.7840449658     4.9289037656    -0.6331854704
 F      2.9860500464     4.0441560280    -0.5016393256
 H      2.6605262172     3.0705679534    -3.7534947156
 F      2.8114572512     3.5143401836    -4.5416412950
          12
Energy: -40.4766425757381 Kcal/mole
 H      0.0475439760     3.5796324990    -4.9228673120
 F      0.6962876319     4.0021791682    -4.4314662729
 H      4.2889189615     2.9491043786    -3.4171719823
 F      5.1246678130     3.1234165720    -3.7518779974
 H      2.6719095457     1.0306238046    -6.0254558555
 F      1.7702281832     0.8754484437    -6.0869402266
 H      2.0120537577     3.3420813363    -3.7455287940
 F      2.6916358086     3.0354059882    -3.2116678881
 H      4.7880663827     2.2430660868    -5.1546371016
 F      4.3182009190     1.7422924115    -5.7623715602
 H      0.3270423244     2.0481971951    -6.6312207969
 F     -0.3815774873     2.6132392884    -6.4916701066
          12
Energy: -44.10479551658827 Kcal/mole
 H     -2.3997816728     2.2124528175    -2.0818747018
 F     -2.3873637134     2.6035730124    -1.2525618613
 H      1.0713445352     2.2028570452    -0.1530935156
 F      1.8813500842     2.0156054877    -0.5400261517
 H      0.6565213777     0.9623546672    -4.3028004209
 F     -0.0844334369     0.9244001718    -4.8417200986
 H     -1.1750557069     2.2972838013    -0.2243963943
 F     -0.4690757419     2.0583603442     0.3098290925
 H      1.9879429213     1.3397007341    -2.2614716849
 F      1.9180383807     1.1604842094    -3.1580673532
 H     -1.5036418546     1.3531351263    -4.1550318774
 F     -2.2104037999     1.6825768990    -3.6724920645
          12
Energy: -42.474039296292034 Kcal/mole
 H     -4.1242581831     2.2401503899    -3.5147643103
 F     -4.5211894685     2.8764545928    -2.9870792564
 H     -2.3930572287     4.2684554289    -0.4606144580
 F     -1.4894902900     4.4230403141    -0.4842639924
 H     -0.4859476688     1.7541546496    -3.0625087059
 F     -0.9709402276     1.3700614817    -3.7393718060
 H     -4.1355706675     3.5896392381    -1.3958650076
 F     -3.8867650389     3.7723780753    -0.5323887332
 H     -0.1969026669     3.1585916265    -1.0495724483
 F     -0.0034487226     2.4506591125    -1.5993870780
 H     -2.4066832999     1.1846957121    -4.4999791397
 F     -3.3108019284     1.2263532060    -4.6473669237
          12
Energy: -42.33046141517477 Kcal/mole
 H     -5.9915775308    -1.6637886513    -1.4675216661
 F     -6.4717048298    -0.9444789758    -1.1626276394
 H     -5.8894408564     0.9088167656    -4.4505839126
 F     -5.5219141744     0.8849353965    -5.2903712775
 H     -2.8447716662    -0.5729752840    -4.1742577002
 F     -2.5727839880    -0.8562575246    -3.3456064617
 H     -6.2404535212     0.4549949335    -2.1070979790
 F     -6.1744676709     1.0875288730    -2.7677307688
 H     -4.0171751951     0.3258230316    -5.6982364511
 F     -3.2250286425    -0.1353263040    -5.7253312769
 H     -3.6631031955    -1.8379296618    -2.8504874826
 F     -4.4257112286    -2.1769192374    -2.4704821464
          12
Energy: -41.78869379388148 Kcal/mole
 H     -4.0948255034    -2.7805113980    -3.4161990688
 F     -4.4675549188    -3.6180462013    -3.4384978614
 H     -6.8963105054    -1.4418240471    -3.2226896181
 F     -6.9868726191    -0.8854916909    -3.9460026990
 H     -3.7762111169     0.8847468888    -5.1309317515
 F     -2.9322971160     0.8288974890    -4.7765604720
 H     -6.0184633025    -3.3091925898    -2.7398221073
 F     -6.6491404410    -2.7871617982    -2.3267613376
 H     -6.0358966546     0.1789839919    -5.2201373663
 F     -5.3591020131     0.5080323446    -5.7441270559
 H     -3.3059368409    -0.5683254094    -3.6662258450
 F     -3.8866849301    -1.0803114333    -3.1748085395
          12
Energy: -42.62977985640569 Kcal/mole
 H     -2.8016865197     0.9476000459    -1.4638900403
 F     -3.4315895214     0.5071695765    -0.9637578477
 H     -6.4498066176     0.8548169649    -2.0960395787
 F     -6.4314965383     1.1434194695    -2.9662477925
 H     -3.2084384256     0.4592883629    -4.7499658981
 F     -2.3638052436     0.5219034507    -4.3984504095
 H     -5.2562116904     0.3104383118    -0.4805717823
 F     -6.1419244214     0.5468104423    -0.5035972932
 H     -5.4340456147     1.0559847219    -4.2721638020
 F     -4.8428079688     0.9816653651    -4.9691599852
 H     -1.8880091678     1.5226322396    -3.1024450271
 F     -1.7094500140     1.7948747630    -2.2451879846
          12
Energy: -42.81090982400765 Kcal/mole
 H     -4.1661926051     0.0402652697    -2.1789529418
 F     -4.4174907053    -0.8278149770    -2.3344358994
 H     -7.4130133249    -0.1186189322    -5.1293130164
 F     -7.4556825705     0.5527458644    -5.7524804461
 H     -5.1866837675     3.4874953193    -4.6888177533
 F     -4.5916622735     3.6251105345    -4.0047852438
 H     -5.8975381269    -1.0846559187    -3.3126566883
 F     -6.7089013400    -0.9793582221    -3.7267715655
 H     -6.5001460255     2.1038784668    -5.7409970052
 F     -6.2091787722     2.9732127345    -5.7630194589
 H     -4.2115737537     2.5239604521    -2.7591365164
 F     -3.9118313941     1.8086921926    -2.2698157271
          12
Energy: -43.86515537065026 Kcal/mole
 H     -1.2019267257    -0.3198586097    -4.8418104219
 F     -1.1187625485    -1.0157838018    -4.2504891500
 H     -4.2600430753    -0.5944444746    -2.8191189977
 F     -4.6409438818     0.2214132300    -2.6453957075
 H     -2.4501671180     2.7523217243    -3.6118252644
 F     -1.8838160287     2.7401309032    -4.3329263860
 H     -2.5805087932    -1.6286939521    -3.6173951834
 F     -3.4037018260    -1.8696034485    -3.2930422192
 H     -3.9751448260     1.6758424422    -2.2571774495
 F     -3.4525671520     2.4285834249    -2.2227886775
 H     -1.5830003652     1.6326937756    -5.3951541686
 F     -1.4999964129     0.9495915222    -6.0012652602
          12
Energy: -43.747525669987596 Kcal/mole
 H      2.0573799281    -0.9796503771    -1.5058802545
 F      2.3062844647    -0.1811716111    -1.8818685414
 H     -0.0645514758     0.5795197854    -4.3730595921
 F     -0.6787185507    -0.0041844123    -4.7237406634
 H     -0.3746850264    -3.1262955247    -2.8636304952
 F      0.2671910408    -3.7033445344    -2.5539555774
 H      1.5819380653     0.8034319630    -3.0439241517
 F      1.1708920927     1.4342785340    -3.5673387219
 H     -1.3594089832    -1.2675986137    -3.6468115178
 F     -1.5548941731    -1.9833637504    -3.1079657053
 H      0.9915727635    -2.8831757789    -1.3957630209
 F      1.2680212019    -2.2294531892    -0.8151495208
          12
Energy: -43.98085161084039 Kcal/mole
 H     -0.0336229821    -1.6439895650    -0.4671260450
 F      0.4501085656    -1.2799384763     0.2216116370
 H     -1.4820456193     2.0223406709     1.2370818453
 F     -2.3732966584     2.2372170878     1.2173660962
 H     -2.9213949659     0.0744287498    -2.0999699032
 F     -2.7704638574    -0.5455154267    -2.7585881679
 H      0.1273347780     0.2280902051     0.6926084114
 F     -0.0819008828     1.1097053538     0.8335487106
 H     -2.9927971367     1.7624704079    -0.3041235013
 F     -3.1207715966     1.5114664486    -1.1767680739
 H     -1.6011720028    -1.5707181661    -2.1881388716
 F     -1.0562497865    -2.1008334015    -1.6753751682
          12
Energy: -43.844876465974465 Kcal/mole
 H     -0.2280617809    -3.1303842325    -3.4229095696
 F      0.0845116923    -2.2735377075    -3.5177824136
 H     -0.3265952563    -0.0659527612    -0.4183062493
 F     -0.9353025401    -0.1782982404     0.2582607732
 H     -3.1782557540    -2.4227970682    -1.5177868260
 F     -3.1678821775    -3.2455441224    -1.9225937846
 H      0.4045589641    -0.9135731642    -2.5862760778
 F      0.4772065573    -0.2512235419    -1.9562726611
 H     -2.1343759037    -0.5100442368    -0.6767450853
 F     -2.8235920494    -0.7711159143    -1.2223747067
 H     -1.8948633252    -4.1598104623    -2.6159017869
 F     -1.1288229755    -4.5166929881    -2.9718597133
          12
Energy: -45.23886364623809 Kcal/mole
 H     -2.7650933737    -3.8202380650    -3.6898277404
 F     -1.8830463303    -4.0292832785    -3.8283272418
 H     -1.2777239283    -0.3922727833    -4.0960729552
 F     -1.6138906362     0.3892265389    -3.7538161014
 H     -4.6731336650    -0.7708143744    -5.4131486347
 F     -4.9434126152    -1.6256855741    -5.6055895896
 H     -1.1274027602    -2.6942839318    -4.4803497104
 F     -0.8432046960    -1.8799585541    -4.7917893347
 H     -3.0195159387     0.7056997250    -4.5790264464
 F     -3.8356669714     0.6862384836    -4.9966479877
 H     -4.6069120283    -2.5860789524    -4.2499846437
 F     -4.2804190415    -3.0888640580    -3.5560837378
          12
Energy: -44.182009304487366 Kcal/mole
 H     -3.7669917281    -3.4020919350    -5.8168953347
 F     -2.8623924067    -3.2652665633    -5.8790876611
 H     -1.8885456378    -1.1993923473    -2.6741028433
 F     -2.3145975533    -0.6617272574    -2.0655923533
 H     -5.6928346358    -2.5955204671    -2.2114962267
 F     -6.1584290223    -3.2690015111    -2.6244540340
 H     -1.8591738992    -2.7945520138    -4.5993273510
 F     -1.4413111349    -2.3391844479    -3.9218909406
 H     -3.9042529904    -0.8598861110    -1.8500877872
 F     -4.7838431225    -1.1051408786    -1.7660622053
 H     -5.7393951877    -3.3991581308    -4.3131974317
 F     -5.3195853186    -3.4013040244    -5.1284544887
          12
Energy: -44.639152062003745 Kcal/mole
 H     -4.4341215288    -5.8771204986    -4.0084674870
 F     -3.8645042111    -5.9688451355    -4.7212168836
 H     -2.8276302990    -2.8586860381    -4.7817442328
 F     -3.0991475001    -2.1628100482    -4.2498382108
 H     -4.9986429032    -3.1089108483    -1.0881640195
 F     -4.9904418841    -3.9357656297    -0.6917640779
 H     -2.8905065967    -4.8382648033    -5.6159203371
 F     -2.4404359752    -4.0882440846    -5.8912280872
 H     -4.1757032246    -1.9012387618    -2.9642081127
 F     -4.7622700494    -1.8445699168    -2.2616292900
 H     -5.3354955736    -5.0454015960    -1.8963709217
 F     -5.3981969496    -5.4729510307    -2.7051718974
          12
Energy: -44.79207902041313 Kcal/mole
 H     -4.1464551331    -5.6542602940    -5.3670726949
 F     -3.3225832358    -6.0566714799    -5.3533128181
 H     -1.5386963202    -3.8343409943    -3.3896725006
 F     -1.6946241479    -2.9503836032    -3.2020696136
 H     -5.0647971833    -3.5890290486    -2.4175499410
 F     -5.7751081227    -4.0075097465    -2.8190736325
 H     -2.1023583053    -5.6644419231    -4.3512185745
 F     -1.4707783795    -5.3761944879    -3.7521282529
 H     -2.9805921120    -2.7193447091    -2.1303529844
 F     -3.7786774606    -2.8415968636    -1.6956080165
 H     -5.6250621523    -4.2830079990    -4.4132824893
 F     -5.3592296298    -4.6107029632    -5.2274311738
          12
Energy: -44.256955328759005 Kcal/mole
 H     -4.6760905020    -6.0324819791    -5.4023872666
 F     -4.8127826923    -5.8925977348    -6.2982871736
 H     -4.5968939741    -2.5061359331    -6.4321117444
 F     -5.1240088033    -1.8423795466    -6.0821597246
 H     -4.8560852991    -2.8269022322    -2.8675986114
 F     -4.6115151250    -3.6278373368    -2.4939980385
 H     -3.8591358172    -4.5990468346    -6.7775578922
 F     -3.4589026402    -3.7745107602    -6.8065866031
 H     -5.1974940059    -1.3173455695    -4.4745321103
 F     -5.2577152663    -1.3296506825    -3.5595944163
 H     -4.7967112594    -5.2623546243    -3.2003423040
 F     -4.7431098620    -6.0388330839    -3.6852104222
          12
Energy: -44.35868718541508 Kcal/mole
 H     -5.6010526584    -7.3718916469    -4.3205013645
 F     -4.9440908618    -7.4981581852    -4.9476751515
 H     -4.2880187892    -4.0964397909    -5.0895910423
 F     -4.2660803153    -3.4139716567    -4.4775085730
 H     -4.6824938791    -4.3585486410    -1.4338429981
 F     -5.2689663030    -5.0591945800    -1.3561618281
 H     -4.6038822944    -6.1389012072    -5.7054019454
 F     -4.4626079528    -5.3528832098    -6.1560750734
 H     -3.8752197193    -3.0944964311    -2.8844299742
 F     -3.6669538027    -3.1650715733    -1.9941864922
 H     -6.0120031908    -6.2987926459    -2.3095684932
 F     -6.3876115356    -6.7973395860    -2.9813261279
          12
Energy: -44.69919086910831 Kcal/mole
 H     -6.7028978224    -5.7372639071    -5.0637383126
 F     -6.4594212573    -6.0635640345    -5.8854051484
 H     -2.9759406374    -6.3903369124    -5.4875032238
 F     -2.3865956652    -6.3905329207    -4.7849639257
 H     -3.9957738763    -4.3600198963    -2.5076804002
 F     -4.8966628228    -4.1889413248    -2.5121780059
 H     -4.9308340652    -6.1939695726    -6.6326755376
 F     -4.0278447345    -6.1903089694    -6.7923184784
 H     -2.3192354125    -5.2006436189    -3.5295196748
 F     -2.3833137912    -4.6621819272    -2.7900320359
 H     -6.1752329719    -5.0204249955    -3.0245922291
 F     -6.8871699206    -5.4518069516    -3.4092276266
          12
Energy: -44.40953242438715 Kcal/mole
 H     -4.6763325169    -6.6743785574    -3.3003548336
 F     -3.9335547493    -7.1580029500    -3.0652428710
 H     -1.6839662430    -4.5839473277    -4.8826429530
 F     -1.6291970511    -3.6706290868    -4.9437913493
 H     -4.2622886736    -2.7275997441    -3.1749367189
 F     -4.5603283002    -3.3532433266    -2.5744107090
 H     -2.7050487538    -6.5582090296    -4.0850196689
 F     -2.1634739348    -6.1374202902    -4.6937253056
 H     -2.8570206763    -2.4644520239    -4.7808087877
 F     -3.5901251457    -1.9892617159    -4.5021674269
 H     -5.2594674832    -4.7112047674    -3.1936828066
 F     -5.6008741830    -5.4426419362    -3.6288036330
          12
Energy: -45.02488104196499 Kcal/mole
 H     -5.8800987685    -2.3772034517    -4.3660857759
 F     -5.4285759243    -2.2228018268    -5.1491414951
 H     -2.5816346821    -4.4553016784    -4.7533538693
 F     -2.0294733475    -4.5866613963    -4.0331098238
 H     -4.7025913506    -4.2358281596    -1.2542452555
 F     -5.6083842939    -4.3207134075    -1.1392555234
 H     -4.3662904332    -3.4721074245    -5.6412329405
 F     -3.8049649290    -4.1695228863    -5.8397634218
 H     -2.7032460618    -4.4015453548    -2.5599464128
 F     -3.1280019549    -4.2591185367    -1.7598301507
 H     -6.3796487659    -3.4144843989    -2.3286010176
 F     -6.7246456729    -2.8370147867    -2.9518144491
          12
Energy: -45.06859887775852 Kcal/mole
 H     -5.9470826881    -2.1391133207    -3.4796303574
 F     -5.3676723143    -1.8689367311    -4.1370322354
 H     -2.1909982985    -2.7394029890    -2.9202139703
 F     -1.8687322784    -3.5482526088    -2.6324711949
 H     -5.0174344779    -5.1633754210    -1.4543955781
 F     -5.8265574050    -4.8107223624    -1.2057092113
 H     -3.8774781949    -1.3102614938    -3.5597020925
 F     -3.0532912711    -1.3464777591    -3.1593356394
 H     -2.8272710752    -4.9180254427    -2.2699597022
 F     -3.4418356368    -5.5473436474    -2.0108111023
 H     -6.5369914832    -3.4282922424    -1.7237168576
 F     -6.8065067767    -2.6316242796    -2.0891900626
          12
Energy: -45.49756523118987 Kcal/mole
 H     -5.9537213520    -1.6418870600    -3.1601079721
 F     -5.3724282095    -1.0326432178    -3.5231633716
 H     -2.1376345493    -2.4448669744    -2.2467227617
 F     -1.8596341109    -3.3075032764    -2.1072115914
 H     -4.9398375738    -3.9995542554    -0.2293021805
 F     -5.7418574565    -3.5582811893    -0.1751617263
 H     -3.7600941106    -0.9767897705    -2.9643897334
 F     -2.9486965809    -1.0171461282    -2.5390728947
 H     -2.8773527863    -4.2317347396    -1.1644891629
 F     -3.4677763186    -4.5965337488    -0.5651472443
 H     -6.4217785586    -3.1662168263    -1.5836857380
 F     -6.7546376769    -2.8950854216    -2.3939829482
          12
Energy: -45.397136649961396 Kcal/mole
 H     -5.5350125415    -1.4914747892    -3.2059203632
 F     -4.9030343422    -1.3079865636    -3.8445318465
 H     -1.5522325681    -2.3423427186    -1.7971412071
 F     -1.1935357992    -2.9913338830    -1.2576635927
 H     -4.5581456603    -4.2108957311    -0.4921319603
 F     -5.3752240919    -4.1712815753    -0.9065020308
 H     -3.3114459876    -1.1732745956    -3.1927980804
 F     -2.5600095488    -1.1939374865    -2.6676263719
 H     -2.3511010345    -3.6364295412    -0.2856982073
 F     -3.0507887037    -3.9992401826     0.1830177024
 H     -6.1923328582    -2.7848603197    -1.4735743515
 F     -6.4545603043    -2.0068278846    -1.8819752530
          12
Energy: -45.642631702581554 Kcal/mole
 H     -5.1377544676    -1.4983152093    -2.3833985591
 F     -4.5170482676    -0.8787757971    -2.6513234178
 H     -2.0399012935    -3.6603060026    -2.9044867161
 F     -1.9517522301    -4.5560046507    -2.7288658905
 H     -4.2773472020    -4.6855023786    -0.1673240688
 F     -4.9510830753    -4.1031286652     0.0513305240
 H     -3.0911300025    -1.5435754750    -3.0557323945
 F     -2.3346559200    -2.0447762956    -3.1877691314
 H     -2.5582155778    -5.3558813255    -1.4307761995
 F     -2.9977944412    -5.6565752655    -0.6842893763
 H     -5.6708438516    -3.2517568336    -1.1728026436
 F     -6.0227582839    -2.7746319251    -1.8723718353
          12
Energy: -45.58002345400374 Kcal/mole
 H     -5.0728883407    -1.4969415760    -2.3183903627
 F     -4.8351934777    -1.4883795598    -3.2040070089
 H     -2.5534763223    -4.2120090046    -3.3553724685
 F     -2.4995267198    -5.0541092182    -2.9964216770
 H     -4.5273706233    -4.5202148748     0.1040095778
 F     -5.3467820599    -4.1577951766     0.2992168009
 H     -3.4187301026    -2.1639489626    -3.7886064230
 F     -2.7012090380    -2.6991302690    -3.9876880426
 H     -2.8494320907    -5.1255581323    -1.4119495393
 F     -3.0749786087    -5.0557436475    -0.5258661878
 H     -5.5419288088    -2.5911760670    -0.2485081821
 F     -5.4575762432    -1.8027386284    -0.7090948190
          12
Energy: -45.86637087360211 Kcal/mole
 H     -5.6712977765    -1.8706740319    -2.7813712347
 F     -5.3159395323    -1.8485245961    -3.6264268073
 H     -2.6951729131    -4.1482581599    -3.3335868765
 F     -2.7105297726    -4.9772651293    -2.9419229751
 H     -4.9777452517    -4.7209670234    -0.2199525246
 F     -5.8270376007    -4.3860160228    -0.1339331484
 H     -3.7161049714    -2.2507465156    -3.7758076255
 F     -2.8607603530    -2.5724955185    -3.8516506406
 H     -3.0925192226    -5.1243674418    -1.3678313424
 F     -3.4100600321    -5.0994235636    -0.5079274889
 H     -6.1090632567    -2.8610997188    -0.7682740612
 F     -6.0894118659    -2.0413717694    -1.1788211497
          12
Energy: -45.89264278923761 Kcal/mole
 H     -5.7752482913    -1.7453141001    -2.7824454771
 F     -5.5010755969    -1.8220182277    -3.6541305179
 H     -2.7439446632    -4.1192179892    -3.2528650085
 F     -2.6699771974    -4.9402261310    -2.8511643175
 H     -4.9943029186    -4.5841912029    -0.1673795657
 F     -5.8593306309    -4.2799634373    -0.1752232616
 H     -3.9397355265    -2.2414714902    -3.8721177319
 F     -3.0769978955    -2.5522331015    -3.8721480865
 H     -3.0940842749    -5.0229942913    -1.2399769958
 F     -3.4024630275    -4.9661795956    -0.3782556746
 H     -6.1215409431    -2.7510747661    -0.7770822555
 F     -6.1808298126    -1.9220251163    -1.1644457904
          12
Energy: -46.09586492272365 Kcal/mole
 H     -5.8280833237    -1.7887667313    -2.7819791416
 F     -5.5278002607    -1.8126047001    -3.6480916247
 H     -2.8163736506    -4.0996123453    -3.3141573218
 F     -2.7722218562    -4.9254937908    -2.9181024556
 H     -5.0047193276    -4.5679030133    -0.1779722658
 F     -5.8674614322    -4.2588347531    -0.1456942313
 H     -3.9438574374    -2.2373273510    -3.8618765373
 F     -3.0843623158    -2.5569447348    -3.8632418171
 H     -3.1303553686    -5.0175374643    -1.3070193721
 F     -3.4243232438    -4.9662554089    -0.4399311187
 H     -6.1360355781    -2.7372496877    -0.7470464210
 F     -6.1800609057    -1.9227585048    -1.1660391220
