          12
Energy: -46.10081409670835 Kcal/mole
 H     -0.4481936032    -3.4848518100     1.3033508264
 F     -1.2511656041    -3.6009139947     0.8759698079
 H     -1.1482691022    -1.0956241882    -1.6256033179
 F     -0.4710399377    -0.8620364684    -2.1980423417
 H      2.4730668912    -1.5850082116    -0.3286669461
 F      2.7225031142    -2.3418377105     0.1250727153
 H     -1.9363613763    -2.3383999581     0.0506073111
 F     -2.1814709930    -1.6022938279    -0.4382260355
 H      0.9910462164    -0.4308896245    -1.5510142733
 F      1.7743620401    -0.2924509164    -1.0947905952
 H      1.7122879272    -2.8690316904     1.3184077165
 F      1.0469861879    -3.1095421033     1.9018606597
