          12
Energy: -46.096793432141396 Kcal/mole
 H     -2.4077566577    -1.8910274385     1.1046806423
 F     -3.1478683280    -1.8804394646     0.5633751738
 H     -1.6679744802    -2.1291726563    -2.6896880032
 F     -0.9913013244    -1.6560457704    -3.0886283372
 H      1.0634072145    -0.9354109520    -0.2798227066
 F      0.8460045002    -0.6123979273     0.5504107821
 H     -2.9936224436    -2.5872950612    -0.9233113439
 F     -2.7734520128    -2.9316433689    -1.7441878415
 H      0.4786578770    -1.6240598966    -2.3340210293
 F      1.2178582941    -1.6096760199    -1.7915591898
 H     -0.2627054840    -1.4285097506     1.4656539233
 F     -0.9424922442    -1.9075062006     1.8521010239
