          12
Energy: -41.90605952394509 Kcal/mole
 H      3.1640192207     2.6702825361     2.3562935421
 F      2.7661928409     3.3561189263     1.8955858068
 H     -0.2332540800     1.1701790886     2.5974547428
 F     -0.0126399777     0.6891923255     1.8485420966
 H      1.3767105407    -0.2010058095     2.0866268074
 F      2.1921771774    -0.5689659451     2.2878940499
 H      3.1885006104     0.6037545424     2.9143591726
 F      3.6314672714     1.3422557534     3.2294551875
 H     -9.235316E-40     2.9427732874     3.7835445547
 F     -0.3771285844     2.1228372918     3.9480551058
 H      1.5484289823     4.0561163915     2.7945888397
 F      0.8431644906     4.3000329979     3.3275012957
