          12
Energy: -41.89929891280124 Kcal/mole
 H      3.9121379489     2.9553923743     1.6692691217
 F      3.4783934474     3.7522803834     1.5361368252
 H      0.7276537102     1.7031707768     3.1014979588
 F      0.5357621690     1.3687012120     2.2695143372
 H      1.7359111448     0.3637262580     1.6843560143
 F      2.4891826190    -0.0884124690     1.4215982213
 H      3.8280789059     0.8245714369     1.7945827828
 F      4.4679909377     1.4359550862     2.0346070002
 H      1.7059704596     3.1775378641     4.3340143545
 F      1.3041950449     2.3719957932     4.5088499580
 H      2.8763370047     4.3539578584     2.9676744547
 F      2.5023956200     4.5380429701     3.7844789065
