          12
Energy: -42.07331691369751 Kcal/mole
 H      1.1652167497    -3.2159194869     4.8609445450
 F      1.1444846498    -4.0949305536     5.1213264273
 H     -2.5172651929    -3.3679130491     2.6849672387
 F     -2.4821035719    -2.5023030601     2.3843478659
 H     -0.9170805590    -2.1099138955     2.0105188392
 F     -0.0169194722    -1.9596443664     1.9209750712
 H      0.6669960089    -1.7011073172     3.4172027987
 F      0.9657396842    -1.6684430401     4.2835596890
 H     -2.0450623316    -4.8473079589     4.1928927431
 F     -2.3658309729    -4.8904098009     3.3349074810
 H     -0.4159826331    -4.4700168192     5.5470778809
 F     -1.3163249426    -4.5966973349     5.6663455318
