          12
Energy: -35.9374339491912 Kcal/mole
 H      0.9258824768    -2.8690118804    -5.7397837826
 F      0.0380594471    -3.0982637977    -5.7296434533
 H      0.0153451221    -0.7717472694    -2.8365674774
 F      0.4226916701    -0.1099535095    -2.3497545675
 H      3.6886178606     0.5358415852    -3.6591983315
 F      4.1638361003    -0.2482761104    -3.6738974522
 H      3.0160779660    -1.7244944466    -4.2532030236
 F      2.5212863635    -2.1034510268    -4.9258561143
 H     -0.3088428848    -2.5939197537    -4.1309041654
 F     -0.5144774662    -2.3670991579    -3.2665224001
 H      1.7758970775     1.0137604108    -2.7927315129
 F      2.3480334079     1.4996567841    -3.3194702849
          12
Energy: -26.672199271045486 Kcal/mole
 H      3.1399220035    -7.1393301387    -4.0384722537
 F      2.3073889830    -6.7623828844    -4.1138946470
 H      3.2400569353     1.7318162635    -2.5533569477
 F      3.6042818291     1.9332482657    -1.7362557451
 H      1.5172212856    -1.1906503568     0.0269292443
 F      2.0237142961    -1.8073408565    -0.4247859955
 H      2.6763333526     0.3447431658    -3.9359157617
 F      3.0923790382     1.1499440341    -4.0753666463
 H      2.0279853502    -1.4769137836    -2.0843997904
 F      2.3003388786    -1.0850941590    -2.8674642432
 H      2.2655231141     1.6331001731    -0.3036759032
 F      1.7144734329     1.0157770150     0.0914764311
          12
Energy: -32.130205099057235 Kcal/mole
 H      2.3202055583    -4.6257119764    -3.0714549326
 F      1.5495852737    -4.9068005214    -3.4813605397
 H      0.7454622563    -4.4014801722    -5.1374295388
 F      0.0644050785    -4.0933415473    -5.6685610747
 H      2.1899624211    -0.6375138259    -4.0101102816
 F      2.2590028500    -1.0351826412    -3.1867136988
 H      2.2874643511    -2.5799435369    -2.2677901477
 F      2.7069561080    -3.3044997738    -1.8937127153
 H      0.1281192187    -0.4088357486    -5.3249938989
 F      1.0236719514    -0.2116770377    -5.3233369163
 H     -0.6522763505    -2.4836002835    -5.2956270360
 F     -1.1892833905    -1.7406774915    -5.2715819916
          12
Energy: -34.77441166181799 Kcal/mole
 H      4.9673086711    -5.5058764818    -4.1387529635
 F      4.7714289765    -5.0439572564    -4.9063145404
 H      3.8517225992    -2.3024019331    -3.2537800600
 F      3.9732898834    -2.3635311138    -2.3469318816
 H      5.6281068494    -4.6904763986    -1.4292227110
 F      5.5223849702    -5.0696765849    -2.2574250432
 H      5.2389795969    -1.5138245690    -1.7418939607
 F      5.8162261094    -1.0770284717    -1.1789688918
 H      6.3607610117    -2.4478092521    -0.3861977645
 F      6.4660479721    -3.3306515667    -0.1617136814
 H      3.7531900861    -3.7396840986    -5.0844023837
 F      3.4304013384    -2.9062982247    -4.8790626418
          12
Energy: -25.358459958600605 Kcal/mole
 H      3.6059522882    -5.7835620243     0.3617005138
 F      3.1372887373    -6.5645795591     0.4677905061
 H      1.0212567512    -4.4538677507     0.9031418812
 F      1.6982483305    -3.8353488152     0.9007485653
 H      3.1374340915    -3.6646382698    -0.1388170956
 F      3.9697909280    -3.9968345676    -0.3330250158
 H     -3.1211405333    -3.6778895571     1.2614074159
 F     -2.5951244842    -2.9639368356     1.0280244099
 H     -1.6258926697    -3.4317163514    -0.4313092148
 F     -0.9672496078    -3.3683445753    -1.0661811192
 H      1.4178615384    -6.0903959130     0.3765855010
 F      0.5525095531    -5.8538200764     0.1866202013
          12
Energy: -35.394714797570344 Kcal/mole
 H      2.6886674373    -1.9111532795    -1.1406049593
 F      2.8924733823    -1.7311243756    -2.0163570535
 H      7.1269746328    -4.6042726617     0.0141472422
 F      7.3073166619    -4.3534983039     0.8775579058
 H      4.0651081401    -2.7623837572     0.9101244669
 F      3.5315970406    -2.1391085248     0.5005113675
 H      5.9356132593    -3.8364191458     1.5477377769
 F      5.0703709736    -3.8741803694     1.8490994815
 H      5.7541203105    -4.2242995434    -2.0187182479
 F      5.7818490562    -4.8803439718    -1.3786199550
 H      4.3783685169    -2.3939524857    -2.5205118442
 F      5.0505761216    -2.7850744447    -3.0063611515
          12
Energy: -32.938677370587385 Kcal/mole
 H      5.4594358983    -2.3952712703    -1.3786938052
 F      6.1610999210    -2.8404343678    -0.9908969307
 H      4.2956995094    -3.7912063250    -5.8630600846
 F      3.8541127518    -2.9875904308    -5.8534877244
 H      2.9856450671    -3.0114024269    -2.5399097486
 F      3.5583363580    -3.4779098662    -1.9965088889
 H      2.8332894879    -2.0903049577    -4.4664280308
 F      2.4138279608    -2.0584352184    -3.6516118877
 H      5.8415624472    -4.8651059558    -4.0273491545
 F      5.7643874210    -4.6789896166    -4.9219405269
 H      6.1261300549    -4.3391461548    -1.9693036199
 F      6.1480381277    -5.0855145080    -2.5016036459
          12
Energy: -34.698631106345346 Kcal/mole
 H      1.3560490318     0.5273731770     0.4293797678
 F      0.6171034198     0.1168275488     0.7847678228
 H      2.6079434210    -3.9878087292     0.3909128151
 F      3.1788376048    -3.4679306482    -0.1037543577
 H      3.9558853580    -1.7624199637    -0.0942840058
 F      4.2920949858    -1.0404083069    -0.5487631073
 H      3.3332185031     0.4661387337    -0.9630689657
 F      2.5513206617     0.9391483447    -0.8869987780
 H      0.5040178850    -3.8167689749     0.9486796981
 F      1.0590271725    -4.5292972674     1.1072896703
 H     -0.0409669517    -1.4893933429     0.8906145321
 F     -0.2483893369    -2.2528955223     1.3542192951
          12
Energy: -38.25884599455122 Kcal/mole
 H      2.5807686281    -1.5192619696     1.5870841513
 F      2.1291481551    -0.7275135980     1.4867723151
 H      5.1092230834    -0.9442950211     5.1087382641
 F      5.9485017234    -1.3102744285     5.0581473779
 H      6.0449860943    -1.5340805637     3.2085865843
 F      5.9272649910    -1.9122757377     2.3815441717
 H      4.3999055165    -2.5904405449     1.9000207547
 F      3.5621521520    -2.9158839774     1.7179634217
 H      2.8303461965    -0.2005984447     4.4792976483
 F      3.5297673688    -0.2252633883     5.0718266891
 H      1.5104195075    -0.1351534386     2.8564603005
 F      1.3277622365     0.1402904068     3.7118292322
          12
Energy: -33.35874029340073 Kcal/mole
 H     -4.3537508816    -0.5388771523     1.9166129070
 F     -5.0289579183    -1.1301836002     1.7286205072
 H     -2.0765805801    -3.5800365138     4.8692105982
 F     -1.1802408806    -3.4984485867     4.6936897925
 H     -0.9464570029    -1.4423347384     4.9498998078
 F     -0.8558782764    -0.5343206635     5.0404256838
 H     -2.4481278147     0.1882923288     3.9802320140
 F     -3.1172525641     0.4188748327     3.3971430168
 H     -4.2924489532    -2.2275986865     4.6008797561
 F     -3.4897174323    -2.3843849064     5.0155232012
 H     -5.4902907607    -1.6623833851     3.1916790924
 F     -5.7450758955    -2.1240975693     3.9418747649
          12
Energy: -37.068612612490185 Kcal/mole
 H     -6.9769621544    -3.9205465149     0.2684834873
 F     -7.3505272296    -3.2540087114    -0.2385327758
 H     -6.8940363439     0.1934575433     0.2165409439
 F     -6.8160227268     0.1476214821     1.1290659743
 H     -6.2470393118    -1.6740500034     2.2088142340
 F     -6.1334563574    -2.4784482857     2.6341744531
 H     -6.3308480595    -4.1641967817     2.1745951432
 F     -6.4815361454    -4.8874056284     1.6313170699
 H     -6.5936560606    -0.7000272391    -1.6787415423
 F     -7.1075147796    -0.0216475854    -1.3372166348
 H     -6.3612693584    -2.5376893263    -1.4127929728
 F     -5.7139890443    -2.0603071404    -1.8532738958
          12
Energy: -39.1959688590114 Kcal/mole
 H     -0.1084390213    -2.3345832002     0.5094099519
 F      0.1555490782    -2.9405855569    -0.1261688607
 H     -4.3542863605    -4.3889624169     1.5350635151
 F     -4.3889328102    -3.9260858765     2.3259073251
 H     -4.2669889854    -2.3030665753     1.9381588327
 F     -3.9838555389    -1.4404084692     1.8095297403
 H     -2.3106720860    -1.2781261758     1.4274672850
 F     -1.4126052861    -1.3017552113     1.2436013240
 H     -3.1986954410    -4.8517837096    -0.2427441553
 F     -4.0302047214    -5.0920587887     0.0601571537
 H     -0.8690189137    -4.1225363702    -0.5955917438
 F     -1.5125584837    -4.7572796431    -0.7500158330
          12
Energy: -36.22193918385554 Kcal/mole
 H     -2.6799376069     1.9313080938     5.7853009330
 F     -2.5975218048     2.0524495710     4.8800819661
 H     -0.6913420112    -2.3873388351     5.3696241231
 F     -0.8107716308    -2.4982493169     6.2720233867
 H     -2.2723312124    -1.5258411571     6.9165073583
 F     -3.0934287818    -1.1175843316     6.9202684747
 H     -2.7499162839     0.3632969764     7.2837688333
 F     -2.5549823740     1.2588681718     7.2547515138
 H     -1.2871054175    -0.6473797538     3.6941965641
 F     -0.8877261145    -1.4591249418     3.8440462296
 H     -2.3941211152     1.0169926016     3.6683643773
 F     -2.2574423343     0.4763567316     2.9404078078
          12
Energy: -35.761725375382525 Kcal/mole
 H     -1.7578948433     0.9445544570     1.5389396174
 F     -1.7944893988     0.0544666333     1.7564103158
 H     -0.5914535663     2.2999541140     6.6698435846
 F     -0.3027873224     3.1268908274     6.3982989811
 H     -0.1715636806     3.6332478309     4.5366191248
 F     -0.5491373067     3.8978399213     3.7439538849
 H     -1.7036392351     3.0552437801     2.6350942722
 F     -2.2069522329     2.5442953876     2.0636953166
 H     -1.0399227615     0.3399246107     6.1313593077
 F     -1.0307961386     0.8059840950     6.9210391554
 H     -1.5528432296     0.1535932165     3.5788123559
 F     -1.1545426842    -0.0304506951     4.3840287952
          12
Energy: -35.35719148559734 Kcal/mole
 H     -2.5005857913     6.4853256761     3.5450459782
 F     -3.3990539133     6.6337576035     3.6528049532
 H     -2.8514183742     2.7459146971     1.7382586429
 F     -2.8483510298     3.0648744861     0.8785236579
 H     -1.6824881082     4.0978177057     0.1228523761
 F     -1.1788375821     4.8518340863    -0.0138386822
 H     -1.1372974020     5.7309626123     1.8872593637
 F     -1.0778532440     6.1134043996     2.7185798021
 H     -3.2514551686     3.3408052749     4.1277611151
 F     -2.5698533675     2.9651964450     3.6427600927
 H     -4.4475655875     5.1421347503     4.6080702123
 F     -4.4940982011     4.2863509884     4.9341957537
          12
Energy: -37.90527512292496 Kcal/mole
 H      2.6344925596     1.5295906696    -1.8044097110
 F      2.7720256040     2.1879447553    -1.1810770875
 H      0.7975225881     0.9179013042     1.6210217545
 F     -0.0086228944     0.8462594735     1.1898768726
 H     -0.6578812856     0.8382136631    -0.4654282002
 F     -0.6358342376     0.7690371833    -1.3795493860
 H      0.8152310051     0.5652587158    -2.4637578798
 F      1.6100446090     0.4620719836    -2.9093056701
 H      3.0396978594     1.3280781227     2.0704671946
 F      2.2853726422     1.1001756463     2.5394479277
 H      3.7941974799     2.3879910314     0.2473251580
 F      4.2531684414     2.0929548243     0.9843382468
          12
Energy: -36.25654764767795 Kcal/mole
 H      4.4262713802     1.3886217036     4.4817499688
 F      4.5066216661     1.9140845352     5.2289592061
 H      0.5272175126     2.0463739022     2.9959660191
 F      0.7397098519     1.9421815879     2.1100315027
 H      2.0423691068     1.3116091855     1.0754616002
 F      2.8195405932     0.9223309075     0.7833042744
 H      3.6140279276     0.5138998137     2.3796127582
 F      4.0932886759     0.4993244620     3.1612684972
 H      0.8508590017     2.2921908822     5.2820395313
 F      0.4473185174     2.4919825557     4.4832107857
 H      3.1621451069     2.0308011113     6.2616817527
 F      2.3491685428     2.1992329405     6.6510258487
          12
Energy: -34.758798859384854 Kcal/mole
 H     -0.0462263057     0.7493926045     2.3646797349
 F     -0.3511375557     0.2752359251     3.0879318162
 H     -3.6053658852     2.9754592426     3.5281800017
 F     -3.4606926618     3.0178458750     2.6236569053
 H     -1.9192059823     4.0372766660     2.0505523665
 F     -1.0392066802     4.2694377755     1.9383407470
 H     -0.5819291212     2.6627800849     1.1173032316
 F     -0.0474280258     1.9655218174     0.8545705015
 H     -3.6787610691     1.1662117302     4.8050360813
 F     -3.7790215524     2.0125051664     5.1435981217
 H     -2.2035101893    -0.0536413393     3.7255622699
 F     -3.0659832409    -0.0995783069     4.0336515920
          12
Energy: -36.99242212375114 Kcal/mole
 H      1.5573346279    -0.0218134429     2.4135790016
 F      1.8756868867    -0.3197732494     3.2202764622
 H      0.3126333919     1.3297483689     5.6985753243
 F     -0.3679127607     1.8395595487     5.3552992034
 H     -1.1044131684     1.0507823341     4.2147414219
 F     -1.4061896624     0.6333448285     3.4560808414
 H     -0.4210324073     0.7176827168     2.0315293703
 F      0.1996921799     0.5674610116     1.3734842152
 H      1.9160830785    -0.4850785682     5.7802655973
 F      1.6036842504     0.2651332677     6.2050928251
 H      2.9883575327    -1.7469493130     4.4059529316
 F      2.7329352132    -1.9183927475     5.2698137928
          12
Energy: -36.205690423662446 Kcal/mole
 H     -0.8501050739    -2.4149158379     1.7307684573
 F     -1.2834914699    -2.7753665293     1.0074839139
 H     -1.2460415068    -6.6570615820     3.3202022929
 F     -1.1605038768    -6.1260262935     4.0628824637
 H     -0.0571320286    -4.9353747996     4.1027625537
 F      0.3195284112    -4.1012973770     4.1604753438
 H      0.0478815313    -2.4218261221     3.6357059510
 F     -0.1889785456    -1.7074663140     3.1118010278
 H     -1.1076064148    -6.7365868271     0.6488554129
 F     -1.0167528695    -7.4717553040     1.1893754809
 H     -1.2020944401    -4.4000456941     0.1944799518
 F     -1.2638483833    -5.2148956632    -0.2215668946
          12
Energy: -36.95018810019815 Kcal/mole
 H     -4.1813193698    -1.8055072761     3.5569527328
 F     -4.7992952914    -2.0938599260     4.1700167667
 H     -2.5628169085    -4.0138235375     5.6036250319
 F     -2.3391589467    -3.3606499042     5.0001100603
 H     -0.9423897409    -2.4414310559     4.2052804425
 F     -0.4897950818    -1.6904815989     3.9367250709
 H     -2.0181455976    -1.0674374372     3.1180782574
 F     -2.8777708297    -0.9816238937     2.8105567197
 H     -4.0448660502    -4.5469753586     6.6583770729
 F     -3.2036641793    -4.8327862740     6.8854905534
 H     -5.2684856487    -3.5465260689     5.1128759710
 F     -5.5030805420    -4.0331016910     5.8538877119
          12
Energy: -38.85871782244652 Kcal/mole
 H     -3.4324601303    -2.1638462544     4.0530651691
 F     -3.5275653848    -3.0493240560     4.2716356462
 H     -7.1460044092    -2.7466835278     1.5818841946
 F     -6.9681801234    -1.9716792747     1.1251173712
 H     -6.5461623809    -0.9725193685     2.3199519933
 F     -6.6064491279    -0.3530905506     2.9934224438
 H     -5.0307972278    -0.2975964962     3.5703190216
 F     -4.1598386806    -0.5334575488     3.7336890704
 H     -6.6649158127    -3.8704282457     3.2738521995
 F     -7.0410963070    -4.1911340532     2.5015018769
 H     -5.1106544979    -3.1336606300     4.5367089644
 F     -6.0223857711    -3.1446036090     4.6342555516
          12
Energy: -38.89814864168582 Kcal/mole
 H     -4.0255987178    -4.2838271547     1.9779319878
 F     -4.9407376315    -4.3375165145     1.9549706892
 H     -4.0470898635    -1.9700877480     4.7838993138
 F     -3.7182598836    -1.3123552327     4.2360418665
 H     -2.0755937623    -1.3708880178     3.4728702494
 F     -1.2912136455    -1.6733745034     3.1066206645
 H     -1.8852312406    -3.2431446765     2.4588449842
 F     -2.2400153218    -4.0524536639     2.2138220902
 H     -5.4909465100    -3.6664571187     5.3548600589
 F     -4.9620929767    -3.0367220505     5.7606145218
 H     -5.8128492504    -4.7164663271     3.5787128693
 F     -6.1153212617    -4.9376206452     4.4156659444
          12
Energy: -39.038810641986146 Kcal/mole
 H     -2.8328789687    -2.2237906863     3.2753455397
 F     -2.5372904067    -1.9243857403     4.0901296095
 H     -4.8420269557    -5.4145420182     5.6902810430
 F     -5.4966551878    -5.4967510543     5.0534195572
 H     -5.4244285876    -4.5558466142     3.6783802065
 F     -5.2470187887    -3.9130044222     3.0489608873
 H     -4.1026858451    -3.1659986170     2.0811797862
 F     -3.4227341263    -2.6039841726     1.8307912392
 H     -2.6795029957    -4.5574557382     6.5016109950
 F     -3.3158510378    -5.1594160776     6.7728929869
 H     -1.8452922127    -2.9605138136     5.3596101625
 F     -1.4952941557    -3.5823468763     5.9355563425
          12
Energy: -38.755136006910845 Kcal/mole
 H     -6.2296856712    -0.7833571312     3.5757626143
 F     -6.1681815400    -1.1909207539     4.3949073728
 H     -4.5648064666    -4.1081584197     0.6314967621
 F     -4.5481785091    -3.4968591223    -0.0518228411
 H     -6.1179137634    -2.8285613465    -0.0223008239
 F     -6.7977542344    -2.2314867129     0.1267220464
 H     -6.1360553443    -1.1824510974     1.2030642320
 F     -5.7769247563    -0.5611200566     1.7739074314
 H     -5.3985177577    -4.5012897480     2.9220056157
 F     -4.9148845678    -4.7218059603     2.1747703530
 H     -6.2450583948    -3.0160793117     4.4362657313
 F     -6.2400762905    -3.9157119677     4.2587121818
          12
Energy: -37.91269441021211 Kcal/mole
 H     -5.6209126720    -1.8830286427    -1.6818249059
 F     -4.8963365296    -2.0120294860    -1.1347991329
 H     -3.8833450480    -2.4281221728    -4.6949836331
 F     -4.4558051276    -2.8985804571    -5.2352127142
 H     -5.7577843892    -3.6684473833    -4.5131635858
 F     -6.3665304292    -4.1262573458    -4.0025489591
 H     -6.8932210369    -2.5842892143    -3.3920173879
 F     -6.7280952186    -1.7214341429    -3.1291417713
 H     -2.3310746612    -1.9939948684    -3.0483089374
 F     -2.4825762377    -1.7006072009    -3.9037970722
 H     -3.1268312508    -2.1667681163    -1.0375360076
 F     -2.2596415981    -2.1416808348    -1.3345911111
          12
Energy: -37.89848970555576 Kcal/mole
 H     -3.9379436436    -2.4373561050     0.9169723675
 F     -4.2719359146    -2.0659292745     1.6859848982
 H     -6.0562168631    -6.6989099725    -0.0513729585
 F     -5.3846411138    -6.8351027320    -0.6607386493
 H     -5.6546142109    -5.3142509803    -1.4765995609
 F     -5.6685325301    -4.3974905710    -1.4922722264
 H     -4.2519879813    -3.6431554188    -0.7139034322
 F     -3.4431583163    -3.4249177968    -0.3410014167
 H     -6.7260461866    -5.0311840877     1.2845446250
 F     -6.9441300083    -5.8932171514     1.0604298243
 H     -5.6860532264    -2.9458035000     1.9892456373
 F     -6.3181045205    -3.6082081262     1.9380570357
          12
Energy: -37.608578473292766 Kcal/mole
 H     -1.2319104557    -3.1976060402     0.0790421904
 F     -1.8558235868    -2.9998777178     0.7213232157
 H     -4.8375659948    -3.8829566723    -1.9464648804
 F     -4.4238948835    -4.6715427122    -1.7276104321
 H     -2.8094973650    -5.3508029132    -1.8790407212
 F     -1.9684670130    -5.7042160258    -1.9720789865
 H     -0.6428986250    -4.6080633642    -1.6046004483
 F     -0.2522114346    -3.9886221785    -1.0527443651
 H     -5.0697670110    -1.8622504579    -0.8441045902
 F     -5.4672693723    -2.1893224282    -1.6029885069
 H     -3.1958788917    -2.0923529590     0.5471942265
 F     -4.0036004801    -1.6691022730     0.6438052631
          12
Energy: -38.82024931013402 Kcal/mole
 H     -4.2782314030    -3.2305850658     0.7475698001
 F     -5.0943155762    -2.8794618554     0.9747439918
 H     -4.0711817792    -2.8829663037    -3.4080887345
 F     -3.2227023245    -3.1954311218    -3.5608544125
 H     -3.0900152572    -4.8243927888    -2.8966948947
 F     -2.9187680570    -5.4683667147    -2.2667258644
 H     -2.6700112808    -4.5241841019    -0.8754765670
 F     -2.7745736735    -3.8486462056    -0.2642448133
 H     -6.0352830622    -2.3676498951    -2.4791926171
 F     -5.7353319286    -2.7631736496    -3.2502174397
 H     -6.1141548734    -2.2488587289    -0.3324529204
 F     -6.3675668120    -1.7322146007    -1.0464208708
          12
Energy: -39.53247938135232 Kcal/mole
 H     -3.6364866291    -1.9987814501    -0.8005927511
 F     -3.8117504689    -1.1427302429    -0.5224778161
 H     -6.8606098017    -0.8052692811    -1.4800634351
 F     -7.3587235075    -1.1269722485    -0.7805786698
 H     -6.5962615185    -2.5449208789    -0.2175806510
 F     -6.1837592458    -3.3593319665    -0.1311777837
 H     -4.4388190840    -3.8208310554    -0.5179708290
 F     -3.6117253149    -3.6650552728    -0.8820296191
 H     -5.2236897027     0.0421498411    -2.7884088360
 F     -5.9857801005    -0.4666507854    -2.8234680439
 H     -3.5463372477     0.0325772377    -1.7209503508
 F     -3.5955693704     0.5849393258    -2.4512662562
          12
Energy: -39.47752842558725 Kcal/mole
 H     -0.8430652211    -2.5752647485     2.5112956624
 F     -1.0171121803    -2.0553880666     3.2463636127
 H     -4.8527658837    -2.7181946437    -0.2921392459
 F     -4.5217269420    -3.3256845076    -0.8940182074
 H     -2.9172911927    -2.8468268602    -1.1392641132
 F     -2.0135009096    -2.7026081208    -1.0822283402
 H     -1.3067451084    -3.2445623689     0.3114854335
 F     -1.0543191240    -3.5037512869     1.1540952051
 H     -4.3613983421    -0.9453335403     1.7283872925
 F     -4.8756739919    -1.2821770646     1.0479859431
 H     -2.3480661571    -1.0111684875     2.9921599126
 F     -3.0901911226    -0.4910349649     2.8521575758
          12
Energy: -39.37432577041358 Kcal/mole
 H     -2.6694288648    -2.4710844063     1.9830454736
 F     -2.3235098909    -1.6235025931     2.0362820544
 H     -5.7968308117    -2.0963856722    -1.8836564101
 F     -6.2364398341    -2.9002146277    -1.9222817617
 H     -5.1226387791    -3.7982969863    -1.1144560291
 F     -4.4096692221    -4.2668582985    -0.7782809148
 H     -3.6693344260    -4.1491709809     0.8207929915
 F     -3.1177834129    -3.9866114276     1.5351142578
 H     -3.8465975783    -0.6666731960    -1.4500581173
 F     -4.5328301835    -0.8582365710    -2.0273598451
 H     -2.5546233973    -0.7828284674     0.6161425580
 F     -2.7494572963    -0.4192144766    -0.2028285145
          12
Energy: -38.20347366955035 Kcal/mole
 H     -3.5853419479     0.9885928232     2.4136292492
 F     -2.7482924521     1.2144006793     2.7123732093
 H     -3.1696580932     2.6544580908    -0.6611311749
 F     -3.8121109102     2.3679585798    -0.0728613320
 H     -5.4566148157     1.9370795084    -0.2778809895
 F     -6.2508494423     1.6063797758     0.0394800741
 H     -5.7356242047     0.7696836385     1.4378303220
 F     -5.2925944248     0.4396096443     2.1697215520
 H     -1.1538513821     2.7676981232    -0.2531411009
 F     -1.5786560007     3.0589705417    -1.0118178531
 H     -1.3034585733     1.8385510971     1.6674758112
 F     -0.6325700105     2.3407150384     1.2951467735
          12
Energy: -38.92027046509986 Kcal/mole
 H     -3.1092589672     1.2414074742     1.4876277318
 F     -2.2087371759     1.0816131744     1.5540753440
 H     -3.0618253355     4.0345451810     0.2305371892
 F     -3.2743842304     3.5430304069    -0.5138558139
 H     -4.8485610870     2.9273498607    -0.8236339472
 F     -5.5772127032     2.3712018036    -0.8492300548
 H     -5.1393332090     1.4141740702     0.4370640107
 F     -4.8005777771     1.0459358189     1.2055263375
 H     -1.7294498296     4.1314918546     1.9118434785
 F     -2.5786410939     4.4437742161     1.7627028623
 H     -1.0880799976     2.1330042419     2.3002838897
 F     -0.6093641525     2.9069428516     2.4131518125
          12
Energy: -39.628860763389184 Kcal/mole
 H     -4.1634477215     1.7511028261    -1.3759656518
 F     -3.4383033354     1.2442527632    -1.1348067145
 H     -2.4381644569     4.6144676854     1.0897971885
 F     -3.2595562847     4.6519522910     1.4957520745
 H     -4.5236267158     4.8773460606     0.4312188258
 F     -5.0088710672     4.9334504417    -0.3448476777
 H     -5.3326399384     3.5978982530    -1.3307367259
 F     -5.4424645521     2.8423357955    -1.8386273903
 H     -1.2416276621     3.4085848059    -0.0097322135
 F     -1.2413050046     4.3235739833     0.0509612869
 H     -2.0293289053     1.6704047240    -0.5634498458
 F     -1.2343811842     1.8599250429    -0.1474820955
          12
Energy: -40.083453944431454 Kcal/mole
 H     -3.0699048626     0.8973801675     0.2897977471
 F     -2.6303926738     1.6250582002     0.6336039669
 H     -6.0668308487     0.9114771887     3.5784852702
 F     -6.7645901191     1.2419163041     3.0836812771
 H     -6.7367499171     0.5215996672     1.5463638895
 F     -6.5039243695     0.0297140199     0.8083057790
 H     -4.8795503762    -0.1359807673     0.3445373642
 F     -4.0764008894    -0.4430143418     0.0258364292
 H     -3.8586118341     0.7916653796     4.0443587275
 F     -4.6381759463     0.4109084296     4.3413316894
 H     -2.4333941314     1.3320686671     2.2883036834
 F     -2.4242695334     1.2651042451     3.2028098386
          12
Energy: -40.55350385316376 Kcal/mole
 H     -6.8126493879     0.4382564458     5.4713432859
 F     -6.6198207653     1.1868357947     5.9646333433
 H     -6.1478930751     3.5722297190     2.4783490995
 F     -6.9716591798     3.2613373831     2.2221375459
 H     -6.8456113898     1.5516056521     1.9467290930
 F     -6.6931821233     0.6546608140     2.0613775820
 H     -7.0105116191    -0.1562574912     3.4436492812
 F     -7.0634456921    -0.6403934567     4.2206302017
 H     -4.4682551370     3.2480286903     3.8504057322
 F     -4.6632520229     3.7466767591     3.1059493413
 H     -5.0892794759     1.7461869132     5.5774979373
 F     -4.3677149817     2.2045687676     5.2456549679
          12
Energy: -40.35148601369917 Kcal/mole
 H     -3.8394056366     0.6537456282     3.3809863987
 F     -3.4122717341     1.3581830314     3.7837438621
 H     -7.2320515771     2.9815153730     1.3417122028
 F     -7.3882200989     2.5677036519     0.5384312730
 H     -6.1404624177     1.5403909825     0.3399530243
 F     -5.3756404601     1.0345001079     0.3366672791
 H     -4.9997974526     0.0795350609     1.7170158850
 F     -4.8999373157    -0.3165210437     2.5380253338
 H     -5.9613626737     3.7940792028     3.0007132278
 F     -6.8464910142     3.7429261985     2.7665761079
 H     -3.8402657454     2.9255580073     3.4503371393
 F     -4.3655246512     3.6428761672     3.2257336234
          12
Energy: -40.29275167477033 Kcal/mole
 H     -3.9895271116     0.8245591142     3.0843570927
 F     -3.7142170584     1.3971374594     3.7456039553
 H     -7.0061438780     2.8733603932     0.6048214110
 F     -6.9970090295     2.4566905935    -0.2119967037
 H     -5.4817862643     1.8540340520    -0.4005184087
 F     -4.6453410615     1.4894510846    -0.3092622715
 H     -4.3575681272     0.3304742178     0.9128802796
 F     -4.2909069952    -0.1894014427     1.6653260193
 H     -5.6775444300     3.7118118539     2.0136579720
 F     -6.5882495542     3.8060400313     1.9624112421
 H     -3.8599696593     2.8039859621     2.8669986154
 F     -3.9981136482     3.3643444379     2.1543952075
          12
Energy: -41.16240247250093 Kcal/mole
 H     -3.1679125790     1.8186755251     2.7404950854
 F     -3.2419387621     2.5353538645     3.3077527712
 H     -7.2533141266     2.3624782560     1.0792938809
 F     -7.1047263451     1.6089518072     0.5782863339
 H     -5.5788004915     1.4342919597    -0.0269777741
 F     -4.6908956555     1.4673528330    -0.2537397216
 H     -3.7330003567     0.8537894884     0.9499586680
 F     -3.2695893495     0.5583997265     1.6840459428
 H     -6.3738589554     4.1099444153     1.9035417646
 F     -7.2471974054     3.8485889307     1.8042328408
 H     -4.1119528801     3.7887085416     2.6079726670
 F     -4.7192870825     4.3759107718     2.2512827353
          12
Energy: -40.4655356584347 Kcal/mole
 H     -5.1759946811    -0.3006224676    -0.6047586191
 F     -4.7643435048    -0.1494093216     0.2005778904
 H     -6.7883148295     3.4921048509    -0.8917440390
 F     -7.3419025851     3.1021012291    -1.5100698204
 H     -6.3197538217     2.4027540761    -2.5045288715
 F     -5.7434959710     1.8664953655    -2.9748930761
 H     -6.0037062896     0.2235651107    -2.5056802536
 F     -6.1572444298    -0.4996207591    -1.9631701272
 H     -5.6116203662     3.3552285964     0.8287062250
 F     -5.8196252410     4.1106864377     0.3523592695
 H     -5.1974284031     1.1386720991     1.1561192399
 F     -5.2682778564     1.9367143567     1.6022110579
          12
Energy: -40.72065754512394 Kcal/mole
 H     -6.6351280187    -0.3608080007    -0.3213624507
 F     -6.0508244358    -0.7019166575     0.2976070213
 H     -3.9716342160     2.9544117348    -1.9476096712
 F     -4.4479832192     3.1457255820    -2.7074646831
 H     -5.2326260096     1.6857538432    -3.1233757083
 F     -5.6100405377     0.8720706946    -3.3140770655
 H     -6.8318863255     0.4834797451    -2.2190320302
 F     -7.4360969672     0.3936855976    -1.5351054906
 H     -4.0525763373     2.1098725582     0.1210283725
 F     -3.3832588618     2.4812436396    -0.3839336427
 H     -5.4518948697     0.6335240261     1.1190503879
 F     -5.1202354874     1.4596653239     1.3390085887
          12
Energy: -40.97889395534574 Kcal/mole
 H     -4.7408309739    -0.8970840458    -2.5347879322
 F     -4.8515113996    -1.2148621731    -1.6817604384
 H     -4.3488034755     3.9158619707    -2.1281221336
 F     -4.8405202234     4.1986748035    -2.8486223359
 H     -5.6097228121     2.8971977692    -3.6676735607
 F     -6.0285182024     2.1630581910    -4.0233960660
 H     -5.1391718512     0.7056249644    -4.1157501181
 F     -4.6241775236    -0.0444714351    -4.0016219713
 H     -4.0144925589     2.3626208266    -0.6551041129
 F     -3.5361242450     3.1197349655    -0.8521597827
 H     -5.0243200981     0.1781076605    -0.9049288961
 F     -5.0086774372     0.9875879776    -0.4743642396
          12
Energy: -41.203604652952095 Kcal/mole
 H     -4.5449164549    -0.0085476307    -3.4098860153
 F     -5.0399124608    -0.0575167616    -2.6395159884
 H     -3.1091270486     2.9914816589    -1.8204835098
 F     -3.5596580863     3.4247779960    -2.4914269265
 H     -3.3893945031     3.1732687131    -4.1505667632
 F     -3.3821437426     2.8902174343    -5.0227584852
 H     -3.5925371419     1.1950308339    -4.9747480515
 F     -3.6993233408     0.2977255107    -4.8187709226
 H     -2.4757083210     1.1292557619    -0.8773610005
 F     -2.1872696143     1.9995995055    -0.8634369107
 H     -3.8501577767    -0.3982050748    -1.5474113234
 F     -3.0743763077    -0.4104683255    -1.0586355825
          12
Energy: -41.22700949061618 Kcal/mole
 H     -5.1028945356     0.3439165045    -2.8681430092
 F     -5.5233066619     0.4335478895    -2.0581375407
 H     -3.1743038884     2.9943477041    -1.8583669630
 F     -3.5503149092     3.7415787267    -2.2340669911
 H     -3.8664562588     3.3339540758    -3.7992069083
 F     -4.0815265254     3.0387858788    -4.6403427569
 H     -4.2669661269     1.3591068834    -4.5276686910
 F     -4.2681305981     0.4678205926    -4.3120384707
 H     -2.9633574556     0.9898013044    -0.7652114881
 F     -2.5171059742     1.5671422048    -1.3205727220
 H     -4.6643626132     0.0575768862    -0.6353995927
 F     -4.0282942393     0.0489569289     0.0250788098
          12
Energy: -40.832659036997114 Kcal/mole
 H     -5.6180145434     0.2657129624    -3.4157912912
 F     -6.2522347338     0.1489935547    -2.7638477891
 H     -2.8120382562     2.9886910867    -1.4045968260
 F     -3.0139781680     3.8756346882    -1.5205292191
 H     -3.5752681376     3.6318829588    -3.0391229396
 F     -3.9846797766     3.3628423769    -3.8142927759
 H     -4.2565754117     1.6838630890    -4.2114615218
 F     -4.3740339848     0.7862683028    -4.3578038717
 H     -3.4836834915     0.9754966730    -1.1643123091
 F     -2.7399154731     1.3204919481    -1.5750146282
 H     -5.4672629183     0.3382704171    -1.3474652187
 F     -4.9895493289     0.5557547569    -0.5955481433
          12
Energy: -41.43011763111133 Kcal/mole
 H     -5.2735064587    -0.3601039752    -3.1615289103
 F     -5.5818891705    -0.7152481030    -2.3743429401
 H     -3.5542901515     3.1277093802    -1.6276758430
 F     -3.8452302215     3.7872324931    -2.1944845754
 H     -4.9393738086     3.2998371607    -3.3851771906
 F     -5.4450568333     2.8949067690    -4.0341803158
 H     -4.8435384871     1.4166412099    -4.3064927543
 F     -4.5623557101     0.5455138866    -4.3609209864
 H     -3.8494371443     1.3624785377    -0.4068529978
 F     -3.1217379763     1.8581231048    -0.6631328915
 H     -5.3909945567    -0.0043227705    -0.8668515274
 F     -5.1829842622     0.4755620354    -0.1136375535
          12
Energy: -41.6087494377924 Kcal/mole
 H     -5.0380726144    -0.3702636514    -3.0176902343
 F     -5.5116228561    -0.8368527342    -2.3860781726
 H     -3.5718370829     3.4838220919    -1.3344964568
 F     -3.7678309077     4.1909479277    -1.8844496121
 H     -4.6480987837     3.5200284162    -3.1270908267
 F     -5.1260488739     2.9945823664    -3.7070556188
 H     -4.5390271685     1.4452818572    -4.0124214338
 F     -4.2203212714     0.5857679485    -4.0359031711
 H     -4.3458394860     1.6176827111    -0.3835148738
 F     -3.5307671639     2.0282913805    -0.4726587483
 H     -5.7363401158     0.1174701364    -1.0796325111
 F     -5.7614712970     0.7437544286    -0.4102855091
          12
Energy: -41.74781021377527 Kcal/mole
 H     -5.1502332508    -0.3020337818    -3.1406336670
 F     -5.7367273700    -0.6820332221    -2.5469047107
 H     -3.7306277595     3.4606879168    -1.2824158529
 F     -3.8656403091     4.1522483770    -1.8692759225
 H     -4.5726202668     3.5409557634    -3.2403339325
 F     -4.9670149749     3.0698083904    -3.9210408938
 H     -4.3977028082     1.5045521059    -4.1141934971
 F     -4.1216025461     0.6310002135    -4.0746367473
 H     -4.3746139933     1.6523943097    -0.3360307142
 F     -3.5708200924     2.0907958730    -0.3871035461
 H     -5.8933064746     0.2217921074    -1.1357333461
 F     -5.8338763385     0.8174278644    -0.4410570878
          12
Energy: -41.878465366864845 Kcal/mole
 H     -5.1518850806    -0.2781569257    -3.1428182142
 F     -5.7361543303    -0.6730192138    -2.5566422872
 H     -3.6940333696     3.4426279015    -1.2997082368
 F     -3.8438855829     4.1447147759    -1.8702407381
 H     -4.5704078677     3.5293952710    -3.2337548861
 F     -4.9671323375     3.0704216478    -3.9213898970
 H     -4.3906154451     1.5157791042    -4.0910472736
 F     -4.1027484950     0.6462276660    -4.0474363186
 H     -4.3730282539     1.5697036525    -0.3679278754
 F     -3.5717454845     2.0063795121    -0.4582003358
 H     -5.8591675347     0.2246949140    -1.1616522924
 F     -5.8406000163     0.8004857207    -0.4482034896
