          12
Energy: -41.90251958691957 Kcal/mole
 H      3.1302711789     2.7259388699     2.3724855262
 F      2.7174639775     3.3903499618     1.8939073033
 H     -0.2117493268     1.0962870207     2.5393381573
 F      0.0555294888     0.6284498072     1.7973277958
 H      1.4545942742    -0.2113562283     2.1093338714
 F      2.2712204895    -0.5495081257     2.3535958596
 H      3.2087504118     0.6721555972     2.9779677787
 F      3.6170154285     1.4331199209     3.2864187055
 H     -0.0743820907     2.8600900339     3.7409916974
 F     -0.4388375060     2.0311829042     3.8858164899
 H      1.4666223254     4.0318243538     2.7891074506
 F      0.7510314360     4.2419430074     3.3226511043
