          2
Energy: -5.185376207506561E-4 Kcal/mole
 Xe     4.7394302041     0.8696401968     6.3423566929
 Xe    -7.2924938538     2.9734883359    -2.7265447591
          2
Energy: -0.3737569604675962 Kcal/mole
 Xe    -2.0951606779    -1.6068192279     0.6133669974
 Xe    -3.4555029669    -1.7579344414     5.1831103991
          2
Energy: -0.0011219314005912434 Kcal/mole
 Xe     6.9955480647    -2.2779063031     7.0816843480
 Xe    -5.0824259602     3.4570897714     7.4705664735
          2
Energy: -0.0023507282388037856 Kcal/mole
 Xe    -6.7474275806     3.8952267864     0.0687792790
 Xe     2.7608606497    -3.1110475849     0.6110245865
          2
Energy: -0.007807499508209379 Kcal/mole
 Xe     5.5268299377    -4.9796212606    -3.2316789173
 Xe     6.4458762635     4.0860080549     0.0183896457
          2
Energy: -0.3274559699166158 Kcal/mole
 Xe     2.9512360467     3.4491549323     2.0756446988
 Xe     3.0501627807     6.5433365254     5.9348844910
          2
Energy: -0.42854943625665587 Kcal/mole
 Xe     4.1613104227    -0.0225415646     0.3468596715
 Xe     2.4189672757     3.8523183161     1.2637205213
          2
Energy: -0.4075030866015408 Kcal/mole
 Xe     4.7301947728     3.4331508395     5.0826669996
 Xe     0.9889819246     5.4627154082     4.9087802492
          2
Energy: -0.4318425797724696 Kcal/mole
 Xe    -1.5664087712     4.3237665456     2.7702174738
 Xe    -3.3432931784     5.5185196750    -1.0506564416
          2
Energy: -0.4329999998299856 Kcal/mole
 Xe    -1.8513824999     4.0977043900     2.8098821733
 Xe    -3.4764784034     5.9233113429    -0.8691186063
