          2
Energy: -9.622365242643427E-4 Kcal/mole
 Xe     2.5401522455     7.1086747998     4.6058088064
 Xe    -3.8694274632    -5.0254523099     4.6336548116
          2
Energy: -0.02821150461747012 Kcal/mole
 Xe    -5.8059770766     0.7482329421     2.3825508393
 Xe    -4.1255694875    -6.7383098870     1.0139218387
          2
Energy: -2.639289991144288E-4 Kcal/mole
 Xe     7.4520366849    -6.5196419671    -3.6705979124
 Xe    -3.4374886985     3.0988572987     5.2054678330
          2
Energy: -0.0016418105749456675 Kcal/mole
 Xe     0.6733101641    -7.3795405984     7.2763818919
 Xe     5.8526848238     2.2540082389     1.1163398163
          2
Energy: -0.42710098617784475 Kcal/mole
 Xe    -5.4523487073     4.0031311954     5.0965323531
 Xe    -1.4710121846     2.2792295460     3.8676892021
          2
Energy: -0.3748654391253249 Kcal/mole
 Xe     4.0238773260     6.5027360453     4.6082796182
 Xe     6.1273332017     2.4453044175     5.9599241032
          2
Energy: -0.39923045875980423 Kcal/mole
 Xe    -3.4914793193    -0.3679555830    -2.8052038041
 Xe    -2.9437372972    -2.9038402036     1.0714419005
          2
Energy: -0.43230776388933845 Kcal/mole
 Xe    -0.2689911546     2.3625349181    -1.0580274271
 Xe    -0.5336886633     3.4030008661     3.2574602010
          2
Energy: -0.43234113514134526 Kcal/mole
 Xe     6.2589726978     3.6442096902    -3.6840074646
 Xe     7.1519512475     6.7305933441    -6.7574742217
          2
Energy: -0.4329999997772778 Kcal/mole
 Xe     6.5483641453     3.4910990319    -3.7943325006
 Xe     7.3024214151     6.7548877928    -6.6732362346
