          2
Energy: -0.22455493291606649 Kcal/mole
 Xe    -4.2085947054     1.3976889095    -2.0347410517
 Xe     0.1616976981     4.2945132306    -0.8288272551
          2
Energy: -0.0026083942279868807 Kcal/mole
 Xe     2.8982864397    -0.8768997507    -1.9200002010
 Xe    -7.4000614334     1.2189285881     3.0368973853
          2
Energy: -0.13545675348220101 Kcal/mole
 Xe     4.3777283709    -5.7780937288    -0.5350484991
 Xe    -0.5143578280    -2.4304515235    -0.6107639742
          2
Energy: -0.002640820163239959 Kcal/mole
 Xe     4.8638021406     1.4569821379     7.4374260690
 Xe    -1.3791551865    -2.3107262195    -1.5788599777
          2
Energy: -0.001977761845972914 Kcal/mole
 Xe     0.3345585731    -2.6038879841     2.0149913964
 Xe    -7.0961382778     6.1371432281     6.0727641294
          2
Energy: -6.907431079996415E-4 Kcal/mole
 Xe    -5.3882342459     4.9930317473     1.0733615570
 Xe     3.6246974282    -6.2070312440     2.9862987030
          2
Energy: -0.36203939404468455 Kcal/mole
 Xe    -3.7561846952     6.6585140829    -1.3510153596
 Xe     1.0146907184     7.2148872432    -1.7001020857
          2
Energy: -0.4022766179008662 Kcal/mole
 Xe    -1.2020034333     4.9569395051     0.2262541588
 Xe    -3.6294261217     6.7065493511    -2.7868096807
          2
Energy: -0.4305920176775396 Kcal/mole
 Xe     5.5324834791    -2.0393601460    -0.5910765476
 Xe     4.8648139495     2.1952899896     0.6900964535
          2
Energy: -0.43299999987354365 Kcal/mole
 Xe     5.6509608134    -1.8220065971    -0.8531355129
 Xe     5.0283570927     2.2552269479     0.7272039682
