          22
Energy: -87.19044063204416 Kcal/mole
 H      3.2169368912     2.6192458012     0.0924453640
 F      3.0441014960     1.7573660028     0.3535586333
 H      0.3037903281     5.0227748946    -4.5768354834
 F      0.1604384328     5.9284864351    -4.5819187386
 H      1.4450722708     1.7570094497    -1.8641231964
 F      1.6286414518     2.6187628715    -2.1182341874
 H      2.8763561729     5.9227791185    -2.8110410369
 F      3.2989219630     5.1234104059    -2.6582771201
 H      0.8307877679    -0.0295962649    -0.6328454741
 F      1.0042045804     0.2053704804    -1.5021016145
 H      3.0917164377    -0.7481494330     2.4819578518
 F      2.4446249644    -1.3901024003     2.3816682061
 H      1.1718494449    -0.8423501826     1.4857737871
 F      0.5464903699    -0.4356551424     0.9524688353
 H      3.5111525271     4.4908940551    -1.1292108756
 F      3.6288632615     4.1776524584    -0.2754469240
 H      1.0620406577     3.1161640208    -3.5956995470
 F      0.7069110578     3.4248161276    -4.3827864826
 H      1.2309605458     6.8481278213    -3.7123647355
 F      1.9002887696     7.1834316366    -3.1827799167
 H      3.7907624956     1.0807668687     1.6781499931
 F      4.0725772090     0.5789461056     2.3920445154
