          22
Energy: -87.15176487677837 Kcal/mole
 H      2.4683102946     2.0516297537     1.0611790458
 F      2.2640409485     1.1684491837     1.1995810507
 H      0.8697018876     4.8107032962    -4.0604152683
 F      0.7269263129     5.7164226661    -4.0471277434
 H      1.3938378953     1.3088299943    -1.4043265205
 F      1.5138212278     2.2118216718    -1.5096784562
 H      2.9007595882     5.5590779880    -1.6622020541
 F      3.2197575429     4.7324341778    -1.4260044337
 H      0.8084107622    -0.7262545241    -0.5933604912
 F      1.1380640394    -0.3215533009    -1.3473065349
 H      2.3278019277    -1.7789232430     2.8168924391
 F      1.8543759531    -2.4828458844     2.4686830746
 H      0.7720139406    -1.9133264129     1.3816303968
 F      0.2407538936    -1.4649145042     0.7836516994
 H      3.0241238840     4.0092691440     0.0721324895
 F      2.9234154568     3.6408754335     0.9058188135
 H      1.3552504934     2.8310652657    -3.0454846590
 F      1.2235147102     3.1964996074    -3.8761424859
 H      1.5939790423     6.5800249690    -2.9393798672
 F      2.1327494769     6.8824884750    -2.2617876252
 H      2.8068294523     0.2989174640     2.5144047427
 F      3.0248502338    -0.3107667860     3.1637436790
