          22
Energy: -87.18088749873074 Kcal/mole
 H      3.2626702778     2.6081175966     0.0824036333
 F      3.0757936890     1.7494054113     0.3442805575
 H      0.3402340266     5.0141976290    -4.6195896464
 F      0.1827900174     5.9175172091    -4.6302723545
 H      1.4705696877     1.7739689648    -1.8628987473
 F      1.6659947658     2.6289840879    -2.1305686524
 H      2.8613184395     5.9456771765    -2.7877097049
 F      3.3129432286     5.1602368105    -2.6462619002
 H      0.8409966161     0.0153052114    -0.6010677118
 F      1.0091105637     0.2373434174    -1.4747528586
 H      3.0845403104    -0.7823516631     2.4945295587
 F      2.4176453469    -1.4073300055     2.4200837442
 H      1.1659045696    -0.8118515897     1.5239940371
 F      0.5607490599    -0.3760315767     0.9903867609
 H      3.5541011936     4.4911054687    -1.1358805891
 F      3.6901450419     4.1595640489    -0.2918063280
 H      1.1131304124     3.1188937546    -3.6162800892
 F      0.7653480947     3.4234179380    -4.4082406193
 H      1.2035677860     6.8366875232    -3.7065189229
 F      1.8476538181     7.1759411745    -3.1488907821
 H      3.8148843622     1.0343496216     1.6527911790
 F      4.0939562302     0.5197382993     2.3586120340
