          22
Energy: -4.1377601787981675 Kcal/mole
 H      3.8355713786     3.5374163927     0.6245679610
 F      3.1315791115     3.5374163927     0.0369593431
 H      4.7696384326     2.4940630961     3.4760614199
 F      5.6866384326     2.4940630961     3.4760614199
 H     -2.1777521001    -1.0550755716     2.1640450059
 F     -2.7561157400    -1.7666825559     2.1640450059
 H      0.5060615537     2.9453304693    -3.1568554693
 F      0.9085040832     2.9453304693    -3.9808269557
 H      0.8780690149    -4.3606830692     1.8182506228
 F      1.4093800660    -3.6132892192     1.8182506228
 H     -1.7711020246     1.3583522636    -3.8994851020
 F     -2.6788947952     1.3583522636    -4.0291048756
 H      2.6313488457     1.2942538314     4.8031927763
 F      2.1279439942     2.0607214142     4.8031927763
 H     -3.9548152759     3.5338997600    -1.8871113009
 F     -3.5989534640     3.5338997600    -1.0419773643
 H     -1.6897247883    -4.6204449777     5.4470715370
 F     -1.1192460104    -4.6204449777     4.7291279709
 H     -0.1912264820     3.8887333581     2.3915985286
 F      0.7257735180     3.8887333581     2.3915985286
 H      5.2950816239     0.2733219786    -0.4648832410
 F      5.3824525211    -0.6395062234    -0.4648832410
