          22
Energy: -87.18211610956801 Kcal/mole
 H      3.2675058087     2.6087887586     0.0755310475
 F      3.0800465552     1.7494819727     0.3350303268
 H      0.3304785166     5.0185002138    -4.6133820668
 F      0.1814370863     5.9231658186    -4.6293756768
 H      1.4590464187     1.7784991783    -1.8506196600
 F      1.6470817752     2.6363834207    -2.1143739612
 H      2.8664442020     5.9475977506    -2.7931876913
 F      3.3126713187     5.1601349285    -2.6459713056
 H      0.8325706937     0.0056160851    -0.6011017277
 F      1.0055650782     0.2322114435    -1.4726615286
 H      3.0918310508    -0.7885612246     2.4703004698
 F      2.4327100028    -1.4205721779     2.3865711503
 H      1.1654134697    -0.8262426779     1.5136745383
 F      0.5508521381    -0.3903312454     0.9910039034
 H      3.5591169475     4.4941299557    -1.1367845123
 F      3.6984919309     4.1610851700    -0.2938463267
 H      1.0905904675     3.1211449537    -3.6005511985
 F      0.7418966695     3.4230000756    -4.3931325007
 H      1.2119794205     6.8436929656    -3.7173618039
 F      1.8598980155     7.1836468110    -3.1646214695
 H      3.8111509489     1.0381872703     1.6471044862
 F      4.0873749410     0.5249234574     2.3550236655
