          22
Energy: -87.1505790324517 Kcal/mole
 H      3.0399774815     2.4339892607    -0.3056728841
 F      2.8607244877     1.5666881963    -0.0678783766
 H     -0.3055209846     4.9507278275    -4.6354358612
 F     -0.4377130955     5.8566959705    -4.5840941668
 H      1.0069028720     1.7296134721    -2.0795415155
 F      1.2507281399     2.5576833362    -2.3889579645
 H      2.5438245749     5.7938110644    -3.1140228362
 F      3.0159684983     5.0163296433    -2.9978688206
 H      0.3255161331     0.0768101803    -0.7155716015
 F      0.4288670200     0.2581895424    -1.6084932785
 H      2.8441945194    -0.9651970132     2.0444908451
 F      2.0869890872    -1.4820864159     2.0633131395
 H      0.8037693757    -0.7378495505     1.3490882673
 F      0.1794290089    -0.2391813357     0.8991792565
 H      3.2977989734     4.3423949464    -1.4878290422
 F      3.4533262523     4.0031084368    -0.6502223744
 H      0.5446168280     3.0397029545    -3.8033013090
 F      0.1143240912     3.3536933493    -4.5497242405
 H      0.7594635233     6.7119368883    -3.8293771822
 F      1.4932153095     7.0250839802    -3.3772309502
 H      3.7128864615     0.7308686306     1.1189215839
 F      4.0174559419     0.1654976350     1.7735070015
