          22
Energy: -87.1808452202511 Kcal/mole
 H      3.2009390942     2.6029183795     0.1350433891
 F      3.0298657402     1.7411664635     0.3977343537
 H      0.3651346459     5.0496540812    -4.5790977476
 F      0.2347031125     5.9568872585    -4.6074628153
 H      1.4171070838     1.7704659670    -1.8194942698
 F      1.6123975208     2.6318690650    -2.0659396957
 H      2.8664064351     5.9396905428    -2.7745549532
 F      3.2542243102     5.1242748650    -2.6146063109
 H      0.7847333500    -0.0049184467    -0.5884704900
 F      0.9539465429     0.2209288819    -1.4609662663
 H      2.9952129742    -0.7403193185     2.5758154153
 F      2.3476307835    -1.3810099666     2.4707354468
 H      1.1064321977    -0.8090306549     1.5492896701
 F      0.5017359314    -0.3857502146     1.0051710301
 H      3.4790203804     4.4866731762    -1.0880385832
 F      3.6082770207     4.1702033500    -0.2371398994
 H      1.0734535185     3.1433156552    -3.5540102128
 F      0.7316418460     3.4504375058    -4.3475654720
 H      1.2863099785     6.8923776643    -3.7218759245
 F      1.9442216039     7.2277053330    -3.1781879185
 H      3.7243018485     1.0754528961     1.7567913201
 F      3.9789135644     0.5831632983     2.4873478382
