          22
Energy: -86.88044053643019 Kcal/mole
 H     -0.7281412441    -2.7195543050    -1.6684536870
 F     -1.4744889039    -3.0873746588    -1.2830158085
 H     -3.1868111713     2.5029737157     0.9671894204
 F     -3.0368296095     1.6004603460     1.0293516979
 H     -6.5214843950     4.0065114553     1.1424099059
 F     -5.9142738167     4.4977664355     1.6228814016
 H     -0.0385539985     0.8121535421    -0.5768104076
 F      0.1513530612     0.6396384414    -1.4571869456
 H     -6.8265161349     2.4278198537    -0.2955552724
 F     -7.3747533805     2.9891234557     0.1790637212
 H     -4.1279539614    -0.9499098900     0.1891123539
 F     -5.0153895817    -0.7503172712     0.0728806616
 H     -5.4119018356     0.7068625922    -0.6091361883
 F     -5.6443666703     1.5138002945    -0.9775118731
 H      0.4711318503    -0.8974162505    -2.0025235529
 F      0.5315056447    -1.7864269564    -2.2190967965
 H     -4.3345579221     4.3404911444     1.1757522681
 F     -3.4938313796     4.1112623379     0.8902316296
 H     -1.4128344948     1.1883772134     1.0593596270
 F     -0.5078200190     1.0650967195     0.9778751597
 H     -2.1833326931    -2.0256783335    -0.2618076353
 F     -2.5143904814    -1.3421690417     0.2521036302
