          22
Energy: -87.18271607335178 Kcal/mole
 H      3.2273255284     2.6312817901     0.1090872598
 F      3.0360433701     1.7749667860     0.3755919497
 H      0.3545164870     5.0290652749    -4.6410092034
 F      0.2244216124     5.9361413457    -4.6753213792
 H      1.4551608203     1.7623059987    -1.8689008284
 F      1.6633078757     2.6138617586    -2.1380041378
 H      2.8639751002     5.9436200200    -2.7898583678
 F      3.2907188776     5.1468754405    -2.6350138541
 H      0.8099029342     0.0056783572    -0.6003310908
 F      0.9711931650     0.2287396483    -1.4750413982
 H      3.0939714857    -0.7633061003     2.4855248319
 F      2.4371896215    -1.3967179723     2.3943328191
 H      1.1683048736    -0.8146933405     1.5155651570
 F      0.5482654717    -0.3873613807     0.9922798273
 H      3.5339716049     4.5009454681    -1.1171992072
 F      3.6680718477     4.1801129678    -0.2686871969
 H      1.0878640691     3.1212826352    -3.6081573293
 F      0.7275679431     3.4297046824    -4.3929831331
 H      1.2456645169     6.8621562644    -3.7462752248
 F      1.8858293120     7.1985076466    -3.1824084119
 H      3.7952838350     1.0694883997     1.6795721512
 F      4.0850186148     0.5554486749     2.3815022892
