          4
Energy: -8.440870395927806E-4 Kcal/mole
 He    -5.3100576982     1.2087622426     0.6132606035
 He    -7.2315825465     7.2633597016     3.7357900279
 He     6.4961797787     4.6560531546     5.8162352544
 He     3.6491810636     1.6895977158     1.7991130724
          4
Energy: -0.017323141169192965 Kcal/mole
 He     4.1658204765    -3.2123741691    -3.9279375540
 He    -4.6298149920     5.0796586974    -2.0124687834
 He    -6.3038242522     2.4105726128    -2.9046746092
 He    -5.6891302115     1.2996131321    -7.1105012272
          4
Energy: -0.0017694598428285207 Kcal/mole
 He     2.4493470386     5.9603011839     1.7027977696
 He    -4.0150530458    -3.4302268314    -1.2224504691
 He     2.0326439013     6.8727160806    -3.0676776690
 He     6.6561723514     1.0898697915    -5.6895919936
          4
Energy: -0.005357962896996183 Kcal/mole
 He    -0.7237094037    -2.2529496405     0.9183901565
 He     5.9887720659    -6.9538666818     4.2986937618
 He    -4.1044770217    -3.3447193826     2.9094098677
 He    -6.1649027720    -7.3588279213     6.3448754340
          4
Energy: -0.008232747107552178 Kcal/mole
 He     2.3438367685     4.3020580190    -1.8716017988
 He     0.8179074752    -5.5883412782     1.5694888751
 He    -5.7247725181    -0.8492743441     4.3639834615
 He     0.6511298113    -2.6745626970    -0.6778821319
          4
Energy: -0.02662000182670798 Kcal/mole
 He     6.1957733759    -0.9415198847     4.2913385821
 He     6.2725097834    -4.5144678375     3.0299203179
 He    -4.5703140276     4.6517008503     1.2453326371
 He     4.8703062755    -0.4979841989     1.5234497932
          4
Energy: -0.01856261244530849 Kcal/mole
 He    -1.5215622163    -1.0977278865     6.9587014117
 He     0.0692588679    -2.9571004537     5.0820682405
 He    -6.2327315197    -3.9408212831     7.2966184346
 He    -3.9708259984    -0.5661738951    -6.3471299150
          4
Energy: -0.03428863992248877 Kcal/mole
 He    -2.7798632173    -0.7225959117    -1.0303826739
 He    -1.3945240932    -3.3472276116    -1.5285734363
 He    -1.7586260069     2.0729323401     0.7195607438
 He    -4.6745884255     5.0753841555     1.3657864537
          4
Energy: -0.10233399306791618 Kcal/mole
 He    -2.4924949151     2.6789606636     7.0990033654
 He    -3.5965679589     2.3842314777     4.2183509833
 He    -2.7817447885     5.4344139713     6.2264886540
 He    -5.0222203876     3.7337727975     6.1419582144
          4
Energy: -0.11998731334227569 Kcal/mole
 He    -2.4519935126     2.8867727148     7.2406442748
 He    -3.0647579219     2.4464492313     4.4702710903
 He    -2.6093641413     5.1109359187     5.4390278368
 He    -4.9917838988     3.7142531232     6.1797289498
