          4
Energy: -0.0011091168453104313 Kcal/mole
 He    -7.3448803210     5.6072917721    -5.1517869356
 He     2.3915259235     1.0670571759     4.5544238346
 He    -0.4643859893    -3.2310485603     2.6983512348
 He     2.2885719529    -3.7718202132    -3.3510705179
          4
Energy: -3.8574641695527094E-4 Kcal/mole
 He     2.5629240028     3.3268245539    -2.8982886423
 He    -6.4498531398    -6.7068850714    -2.6091210577
 He    -0.2446635579     0.2316206720     1.9319805005
 He    -6.4498227445     5.1677001143    -6.7517639434
          4
Energy: -0.029322703933403867 Kcal/mole
 He    -3.4495791565     4.2044859225     0.7184251598
 He    -6.8061400179    -0.0911602676    -4.5171734074
 He    -3.1124521945    -1.7130628444    -4.7693454634
 He    -2.9434141728     1.0639263425    -4.7550657218
          4
Energy: -4.3533166850746955E-4 Kcal/mole
 He    -6.7988211236    -6.8011792285     4.3184321743
 He    -0.0410550598    -6.2474688670     3.8508640184
 He    -2.5643057874     6.1457926287    -3.8634369006
 He    -6.9464637636    -1.4412164752    -0.6878030002
          4
Energy: -0.016843023783503518 Kcal/mole
 He     2.5930344213     1.1533406825     0.1001827300
 He     0.2014860944    -0.2243886267     1.6138156929
 He    -4.3557892903    -0.9134187605    -7.2548135257
 He     5.6116538982     6.2477775012    -1.6516877624
          4
Energy: -0.02161591207259668 Kcal/mole
 He    -2.6432050264    -2.4925466183    -6.1936210694
 He    -3.0256944204    -1.5735731656    -1.0408721511
 He    -1.5234637184     0.6262026845     0.0471124018
 He     3.7130749286    -4.0597844272    -3.0768065779
          4
Energy: -0.0363359422698015 Kcal/mole
 He    -1.1736988210    -3.4020697804    -1.0805934908
 He     0.1266156447    -1.4414429961     2.8483806095
 He     5.8999041036    -0.0656400524     7.0906991701
 He    -0.6724017304    -4.3662616865     1.6793721986
          4
Energy: -0.052169371597215665 Kcal/mole
 He     4.4702492006     3.7600528119     5.5987540863
 He    -5.0260813707    -1.7584266004     2.2669305147
 He    -2.5006266808    -3.7916297483     2.1336329427
 He    -5.0543891506    -4.5727576272     1.5550612140
          4
Energy: -0.11256349861888233 Kcal/mole
 He    -0.8294318303    -0.6368541676    -1.6103529382
 He    -1.3436154782     0.3760255154     1.3360241474
 He     0.5063761240     1.8747500507    -0.4536380185
 He     1.1045794483    -0.8651078897     0.4806436016
          4
Energy: -0.1199803036859988 Kcal/mole
 He    -0.7746397737    -0.2345464755    -1.5726975973
 He    -1.4701199567    -0.0195911341     1.1970467927
 He     0.3991589591     1.8307638716     0.0258935469
 He     1.1460099287    -0.9059017040     0.4424356949
