          10
Energy: -37.885352363950346 Kcal/mole
 H     -1.9396805517     4.3825640338     1.4455014231
 F     -1.2973349060     4.1373924562     0.8387296629
 H     -1.7711678442     3.3324526009    -0.5346300632
 F     -2.1879953661     2.9065835163    -1.2316087858
 H     -5.2952808281     3.5146075984     0.3451920412
 F     -5.4359496561     3.9461074426     1.1420039170
 H     -4.1156452045     4.4730866508     2.0008533775
 F     -3.2978809650     4.7033437069     2.3460089028
 H     -3.8435169451     2.7761821038    -1.2040163198
 F     -4.7461076192     2.7854016237    -1.0423559486
