          10
Energy: -37.874512639366486 Kcal/mole
 H     -1.8104790220     3.5807018231     3.4006983238
 F     -1.7282107708     3.7078650898     2.4962921991
 H     -1.8961551923     2.3558046904     1.5492899102
 F     -2.0522576002     1.5347148793     1.1720200329
 H     -3.3676996428     0.3903384380     4.2222397934
 F     -3.2131272515     0.7595630751     5.0472667889
 H     -2.4748096535     2.2517375053     5.0991985379
 F     -2.0619368356     3.0586126553     4.9599953466
 H     -3.0015608679     0.4609332972     2.0175051696
 F     -3.4953439342    -0.0240690496     2.6190365546
