          10
Energy: -37.88445584307979 Kcal/mole
 H     -1.9462608192     4.3836716510     1.4467586399
 F     -1.3096901082     4.1668413533     0.8233395578
 H     -1.7732292470     3.3417386248    -0.5434330550
 F     -2.1857250360     2.9036237784    -1.2353807448
 H     -5.2918711039     3.5372734298     0.3345058073
 F     -5.4336510866     3.9836040302     1.1229069943
 H     -4.1148891333     4.4545734116     2.0154010160
 F     -3.2964324537     4.6549764828     2.3771416312
 H     -3.8411283462     2.7693662419    -1.1994122340
 F     -4.7430795983     2.7775855939    -1.0341688345
