          10
Energy: -0.151809711896135 Kcal/mole
 H     -3.3630960679     5.6742423252     4.4946055295
 F     -3.7234565212     4.8310167660     4.4946055295
 H      4.2453282737     4.7850901793     1.0696315691
 F      5.1504847105     4.7850901793     0.9227274340
 H     -3.0846134191    -2.6036726311    -0.5357605657
 F     -3.0630523805    -2.6036726311     0.3809859214
 H      1.8335346611    -0.7976289175     2.0766281675
 F      2.7505346611    -0.7976289175     2.0766281675
 H      1.5229671294     3.7100866599     4.3597699146
 F      2.4399671294     3.7100866599     4.3597699146
