          10
Energy: -36.84453171466899 Kcal/mole
 H      2.3396466272     3.1223552825    -1.2069657867
 F      2.1054962576     4.0003712204    -1.3300536300
 H      0.5275393762     4.1978648828    -1.3869337609
 F     -0.3770126223     4.2240912246    -1.2386540895
 H     -0.4396919434     0.7344722614    -1.2656244515
 F      0.2603631378     0.1559976607    -1.1384276761
 H      1.7078976562     1.0025174382    -1.0605809407
 F      2.4343285966     1.5594633215    -1.0058235494
 H     -1.3135924448     2.7725453349    -1.3622882377
 F     -1.5588178184     1.8963265972    -1.4762805176
          10
Energy: -36.426315896089676 Kcal/mole
 H      0.4503012539     2.8576582903     1.6473800120
 F     -0.1099818482     3.5570913416     1.4530471730
 H     -0.7522438806     4.1702186564     0.0616975383
 F     -1.0229534218     4.1813382696    -0.8143627898
 H     -0.4116173977     0.5949683434    -0.9374066499
 F     -0.1840577941     0.0255630419    -0.2555831908
 H      0.7446579437     0.6614679560     1.0593799631
 F      1.0641024405     1.1963032473     1.7322807171
 H     -0.7540427227     2.8110942654    -1.6486749658
 F     -0.5516401670     1.9841740467    -1.9894463809
          10
Energy: -37.07640890784691 Kcal/mole
 H      0.9049884881     6.0435016438    -0.3413108234
 F      0.1580636760     6.4981386639    -0.6175308536
 H     -0.7082812673     6.0633559492    -1.9675244468
 F     -1.0212340252     5.7244063344    -2.7600285350
 H      2.0950104859     3.4169642068    -2.5309052363
 F      2.6559612036     3.2575705439    -1.8232210181
 H      2.4154234869     4.3488961135    -0.5697007116
 F      2.1956402426     4.9963365646     0.0413681780
 H     -0.0515642013     4.4343677825    -3.3633761251
 F      0.6444782214     3.8453517335    -3.4607108041
          10
Energy: -37.04016433481897 Kcal/mole
 H      1.5882209997     5.6676595429     0.5451218613
 F      1.3617921367     4.7933841414     0.7040605041
 H      1.0030254025     3.9413167957    -0.7351305221
 F      1.0697497842     3.6253785732    -1.5933961549
 H      1.6143303450     6.3977187027    -3.0625136693
 F      1.8107795741     7.1645986924    -2.5997050892
 H      1.9819955169     7.3279593847    -0.9148025331
 F      1.9755792624     7.2100382044    -0.0054387846
 H      1.1756232249     4.3834186681    -3.1270846716
 F      1.2453431745     4.9978228474    -3.8042372637
          10
Energy: -37.213646361249715 Kcal/mole
 H      2.0909420392     5.2973088780     1.4912081796
 F      2.0128216609     4.5101250951     1.9550270003
 H      1.7209184555     3.0032703052     1.1472604735
 F      1.5172566927     2.3620316680     0.5241843173
 H      1.8105981855     4.9374222410    -1.8414460601
 F      1.7176946065     5.8404323945    -1.7117133048
 H      2.2413030157     6.5037863580    -0.3022055704
 F      2.4306646301     6.6487364126     0.5832438413
 H      1.8935831864     2.8143001140    -1.0679440140
 F      2.0681267404     3.2632657320    -1.8482346148
          10
Energy: -36.93923904401814 Kcal/mole
 H      3.3461505609     5.5161115212    -0.0227423854
 F      3.4930816605     4.6213005496    -0.1591739693
 H      2.4037012769     3.6661137672    -1.0035302160
 F      1.6485436082     3.2529657336    -1.3196545549
 H     -0.2800192628     5.9946187983     0.1154210649
 F      0.0172156006     6.8505980006     0.2562757458
 H      1.7010646565     7.0161764128     0.2836455203
 F      2.5923972712     7.0290864534     0.0685908740
 H      0.3944230110     3.8099197151    -0.4791552295
 F     -0.2558766274     4.2855274036    -0.0412092204
          10
Energy: -37.09861136880241 Kcal/mole
 H      3.3751514558     6.0916246637     1.4349912066
 F      4.0446444245     5.6817347434     0.9610097532
 H      3.7319091395     5.0615226702    -0.5325383334
 F      3.4826486245     4.8145502214    -1.3797471655
 H      0.4198903739     6.6587795508    -0.4988344259
 F      0.0841122758     6.7882490905     0.3445988596
 H      1.3453872215     6.9004049046     1.5312357608
 F      2.1035598223     6.8245334742     2.0414384983
 H      2.0084210680     5.5914614477    -1.7898767817
 F      1.2341646457     6.0810668933    -1.8311381456
          10
Energy: -37.03061996430222 Kcal/mole
 H      0.2697480806     4.6595385187     2.8080930992
 F      0.8999272165     4.0003035866     2.7123196117
 H      1.5356500672     3.9681483109     1.0798438930
 F      1.5007673066     4.0484893434     0.1670364042
 H     -1.5079298923     5.7948279403    -0.1252390313
 F     -1.9719462015     6.2620607596     0.5129391236
 H     -1.4047536611     6.0685343359     2.0498355033
 F     -0.9316518893     5.7940447589     2.7858512543
 H      0.2548860224     4.5668926587    -0.6961970748
 F     -0.4881275058     4.8968452062    -1.1204036439
          10
Energy: -36.84397069571074 Kcal/mole
 H     -1.5027707145     3.5220008364     0.7129113177
 F     -1.5756525841     3.4477422257    -0.1981665559
 H     -0.5911993412     4.3310316234    -1.1400976256
 F      0.0310839015     4.9425843584    -1.4223312491
 H      0.0895575202     6.6201532632     1.5978350642
 F     -0.0299386825     6.1375813309     2.3683764243
 H     -0.8970682675     4.7048841772     2.3950170963
 F     -1.2943987678     3.8892742912     2.2616079987
 H      0.3505807679     6.4722220730    -0.6235659643
 F      0.5018063868     7.1490255705    -0.0236019338
          10
Energy: -37.32121074042536 Kcal/mole
 H     -2.1068195075     3.9230661739     1.6721192421
 F     -1.7255648104     3.4234485661     1.0043497445
 H     -0.2886667020     3.8156243995     0.2622662372
 F      0.4094702400     4.2917631072    -0.0938036172
 H     -0.3896775979     7.0493198123     2.0976260773
 F     -0.9029810033     7.0364490791     2.8573911451
 H     -1.9585951454     5.7467194733     3.0757425383
 F     -2.4785786471     5.0067345019     2.9243212708
 H      0.5537324082     5.9197115147     0.3309662684
 F      0.5052180515     6.7321585339     0.7534176835
          10
Energy: -37.34706757974084 Kcal/mole
 H     -2.9705507981     4.9143606059     0.4622088841
 F     -2.5150908569     4.3612486978    -0.1100781585
 H     -0.9117889741     4.6313419624    -0.5537370618
 F     -0.0365064893     4.8827444878    -0.6612839914
 H     -0.3916652948     6.9153059997     1.9685366586
 F     -1.2024164198     7.2351185293     2.2536534054
 H     -2.6577133637     6.6434864920     1.8956173085
 F     -3.3676407849     6.1745140398     1.5536276950
 H      0.6910342879     5.7789752043     0.5736706934
 F      0.9485637004     6.3119431601     1.2740368547
          10
Energy: -37.423528427907286 Kcal/mole
 H     -2.9461333508     5.8675864757    -0.3262018297
 F     -2.4283334831     5.6255752825    -1.0432812391
 H     -0.8354760829     6.0123903497    -0.8837215711
 F      0.0204154157     6.2024998648    -0.6150263630
 H     -0.9828036233     6.6389773541     2.7499305227
 F     -1.8575034581     6.6659542377     3.0239039644
 H     -3.0807901982     6.5338621396     1.9111242070
 F     -3.6000784753     6.3956457173     1.1680731281
 H      0.4660681522     6.4546244540     1.0741488954
 F      0.4864873814     6.4579550576     1.9909154754
          10
Energy: -37.43708146532518 Kcal/mole
 H     -4.0049906461     4.0435263051     1.8458367752
 F     -3.5246698357     4.0704270627     1.0651593333
 H     -1.8673771638     3.7953199986     0.9228553317
 F     -1.0139984671     3.5172195615     1.1107221643
 H     -1.9788243441     2.8385567773     4.4757601230
 F     -2.7682760478     2.9791830684     4.9205963330
 H     -4.1317844093     3.5358285525     3.9922011423
 F     -4.6879214802     3.8599674265     3.3391050171
 H     -0.6201582854     2.9256497289     2.6231175134
 F     -0.6368090867     2.6870847849     3.5083849974
          10
Energy: -36.630354247877904 Kcal/mole
 H     -3.7720276138     3.0128895468     1.7232141738
 F     -3.6664498530     2.7160746617     0.8620270510
 H     -2.2311251329     3.1560898487     0.2300762046
 F     -1.3629395436     3.4371806038     0.1399054225
 H     -1.1384342112     2.5510985132     3.7326083352
 F     -1.8053955523     2.6463948796     4.3546776014
 H     -3.1994064200     3.2958189757     3.7519918195
 F     -3.8479397143     3.6819058627     3.2311938914
 H     -0.3815598345     2.8060042568     1.4183459941
 F     -0.2175657491     2.5651005559     2.2878057958
          10
Energy: -36.88535824568106 Kcal/mole
 H     -0.3456640553     5.2466821457     0.7315522539
 F     -0.0126183006     5.1136734628    -0.1124135129
 H     -0.5844596049     3.7855658929    -0.9451739068
 F     -0.8096924125     2.9721010541    -1.3035509965
 H     -2.5906920008     2.4848759782     1.6250537322
 F     -2.5724458667     2.9932421103     2.3880215916
 H     -1.4956495619     4.3696281984     2.4940205084
 F     -0.9277767224     5.0469555483     2.2498134258
 H     -1.7959755994     1.9194742657    -0.3767460305
 F     -2.3026523481     1.5554329665     0.2952968288
          10
Energy: -37.31701241086955 Kcal/mole
 H     -0.0317475490     5.0120432032     0.0617891183
 F      0.5562187461     4.6395580019    -0.5352363508
 H      0.5853496889     2.9589982545    -0.8429890090
 F      0.4791708108     2.0542289496    -0.7380721335
 H     -2.2639167903     2.6874196222     1.5555325324
 F     -2.7642617206     3.4521373161     1.6313665567
 H     -1.7657058315     4.8075092072     1.3977316731
 F     -1.0902809755     5.4091979828     1.2471963582
 H     -0.5459802265     1.5837216450     0.5575214918
 F     -1.1050688512     1.4733805860     1.2759459906
          10
Energy: -37.05346368702416 Kcal/mole
 H     -0.0546149702     5.4308481976     0.8232434153
 F      0.8615687374     5.4646197824     0.8421085657
 H      1.5730164502     3.9381549815     0.8771352662
 F      1.8075013135     3.0518192831     0.8593904442
 H     -1.7686813454     2.3043849843     0.5979610489
 F     -2.4669806359     2.8036980050     0.2755426744
 H     -2.1789661753     4.4178689277     0.4521475649
 F     -1.6792972713     5.1767944548     0.5756466769
 H      0.5027676072     1.9938440146     0.9709493786
 F     -0.3176897348     1.6034989242     1.0949230064
          10
Energy: -37.51963505824543 Kcal/mole
 H      0.1176032807     3.5585129164     3.6346755154
 F      0.7779933114     3.0074237882     3.9525981165
 H      0.8312492007     1.4715193395     3.4881603692
 F      0.7106366685     0.6457673191     3.1080614112
 H     -1.2406159419     2.2842224184     0.7017052696
 F     -1.7768691640     3.0272002123     0.7378366904
 H     -1.4598245984     3.9609409521     2.1005557301
 F     -1.1149942107     4.3449833075     2.8585085472
 H      0.1227517541     0.6888313791     1.5491255232
 F     -0.2701374973     0.9386952962     0.7591286504
          10
Energy: -37.2131189417469 Kcal/mole
 H      0.1699893409     3.3914993646     3.8311901911
 F      1.0007597265     3.4180169753     3.4438836165
 H      1.2992102778     2.2825320146     2.2958068609
 F      1.2388866311     1.6216403371     1.6629780940
 H     -2.1366908731     2.2160467450     1.2040558277
 F     -2.6734756963     2.2741196784     1.9452566020
 H     -2.0652569873     2.8216634240     3.4260899349
 F     -1.5111661256     3.0895196209     4.1058879745
 H     -0.0388362196     1.9399364831     0.5046413188
 F     -0.8487863708     2.1304695230     0.1191975312
          10
Energy: -37.61593121676768 Kcal/mole
 H      0.2065755866     2.7807430640     3.4873864543
 F      0.9038416786     2.3669131852     3.0590713502
 H      0.6162649683     1.6570655711     1.5420153113
 F      0.3255027535     1.4082786743     0.7086777960
 H     -2.7648702966     2.9402243353     1.5412636872
 F     -3.0626999441     3.1491387677     2.3830126171
 H     -1.9474573991     3.4195357691     3.5687501041
 F     -1.1900953441     3.5220524657     4.0754867661
 H     -1.1308109823     2.0169225916     0.2343957979
 F     -1.9775638386     2.3628883165     0.1695396686
          10
Energy: -37.23547736368789 Kcal/mole
 H     -0.8466215261     2.0855695763     4.8598161756
 F     -0.2851995247     1.3953058319     4.6379371558
 H      0.1263763965     1.2069332489     3.0721039417
 F      0.1465281091     1.2394160125     2.1559010283
 H     -2.9372276066     3.2528300953     2.0830024820
 F     -3.3408803301     3.6356640761     2.8119686143
 H     -2.4262569171     3.5336491365     4.1825105780
 F     -1.8959143166     3.3149035940     4.8978958684
 H     -1.1422912301     1.9486658323     1.4888070595
 F     -1.8410615363     2.4176882533     1.1246271210
          10
Energy: -37.26158566319435 Kcal/mole
 H     -0.5529275531     0.5840697952     4.4989733911
 F     -0.4360331378    -0.3104927527     4.3347097505
 H     -1.0987506561    -0.6580674095     2.8778957599
 F     -1.5088771715    -0.7527637578     2.0632069585
 H     -2.2851351582     2.9669029555     2.2372926346
 F     -2.3061310749     3.5030088389     2.9809583211
 H     -1.4593045952     2.7476314368     4.1582636877
 F     -0.9156637937     2.1893947124     4.6417049337
 H     -1.9472166836     0.7055338158     1.4047397145
 F     -2.1215469189     1.5906277574     1.2400986393
          10
Energy: -37.187470501556334 Kcal/mole
 H     -1.6066777175     1.3871446417     4.9863992522
 F     -1.7189109139     0.4785841626     4.9333844851
 H     -2.2412876390    -0.4992320595     3.6752967744
 F     -2.4922288167    -0.8044797719     2.8478057718
 H     -2.0028301140     2.4111110146     1.6229384919
 F     -1.5162906081     3.0912671139     1.9991777639
 H     -1.4778056725     3.1020387292     3.5996938798
 F     -1.4427622302     2.9878638781     4.5088831123
 H     -2.8784564531     0.3596179676     1.6900043575
 F     -2.8929077631     1.0787612504     1.1212222389
          10
Energy: -37.01507299213992 Kcal/mole
 H     -2.0002567837     1.4093065841     5.0665546955
 F     -2.7276701994     0.8650787121     4.9417558732
 H     -2.7274310444     0.1462721530     3.5259861211
 F     -2.6241933926    -0.2475567685     2.7043233144
 H      0.5497274909     1.1849158159     2.4956711582
 F      0.9922049711     1.7642081863     3.0520190972
 H      0.1605081507     2.0940744354     4.5291594213
 F     -0.5341038483     2.2172332277     5.1150221038
 H     -1.2795387842     0.0273896360     1.7360845272
 F     -0.4348323492     0.2765411729     1.4805780685
          10
Energy: -37.5771921987062 Kcal/mole
 H     -2.4232258719     1.4859901820     4.6808627944
 F     -3.1253496052     0.9068768149     4.5688852469
 H     -3.4530917276     0.2018559269     3.1020717354
 F     -3.4888333900    -0.0553281257     2.2226014990
 H     -1.5608112734     2.9052534800     1.5081483933
 F     -1.3830758384     3.5888982057     2.0928953507
 H     -1.2754977353     3.1266286083     3.6701203900
 F     -1.2927067423     2.6835676452     4.4727970578
 H     -2.5993815946     0.9019607540     1.1872721173
 F     -2.0076136265     1.4778866773     0.7885127881
          10
Energy: -37.25595839551852 Kcal/mole
 H     -2.0255447588     1.7592614546     4.2714710110
 F     -2.5633001365     1.0589706038     4.0238808700
 H     -3.3946192390     0.9698453794     2.6223003165
 F     -3.8590451906     0.9866570218     1.8317847226
 H     -2.7958408719     4.1797709330     1.4850466359
 F     -2.2612998992     4.5378165320     2.1384670960
 H     -1.5909227604     3.8097979827     3.4910580981
 F     -1.2844304208     3.3138768698     4.1988813073
 H     -3.8389049081     2.4072754974     0.8385015013
 F     -3.6940967247     3.2514986067     0.5110768050
          10
Energy: -37.42625600647449 Kcal/mole
 H     -1.7626731096     2.2681587415     3.8278063853
 F     -1.5480758249     1.5634933207     3.2816528811
 H     -1.8188622451     1.9351246264     1.6469458548
 F     -1.9295794947     2.3824886600     0.8541683879
 H     -2.6224761713     5.4192910581     2.1708204315
 F     -2.4619136218     5.6926251534     3.0312837602
 H     -2.2694856825     4.4682151902     4.1900890739
 F     -2.1232828525     3.6800174090     4.6353507837
 H     -2.4984849683     3.8928804258     0.6298058612
 F     -2.8618930642     4.7342854125     0.6591521404
          10
Energy: -37.59515099011006 Kcal/mole
 H     -1.0240536644     1.8790627078     3.9600465883
 F     -0.8414017103     1.1973353263     3.3745766565
 H     -1.0295039537     1.3681353406     1.7203372414
 F     -1.1569821597     1.7098626512     0.8789926317
 H     -1.5358642715     5.0327513139     2.1592289154
 F     -1.4461175634     5.2943301763     3.0335349414
 H     -1.3268556673     4.0865160610     4.2337997384
 F     -1.2836860099     3.3331390865     4.7548069505
 H     -1.4987460458     3.2944934272     0.6529310682
 F     -1.6634975953     4.1930988856     0.7320142969
          10
Energy: -37.31953080443947 Kcal/mole
 H     -0.8274059263     2.3447615689     3.9026527169
 F     -1.4315369076     1.6616890125     3.8060781854
 H     -2.0314156409     1.5942540352     2.1979171005
 F     -2.2496784474     1.7626180449     1.3233292504
 H     -1.3820075603     5.0664465804     1.6899363789
 F     -0.5920609212     5.3476861500     2.0611204463
 H     -0.0408829314     4.4390839977     3.3528985745
 F      0.0678117803     3.7789770517     3.9800614556
 H     -2.5758684988     3.3050395255     1.0444530745
 F     -2.6803902577     4.2160630713     1.0439045767
          10
Energy: -37.50456104608111 Kcal/mole
 H     -1.6839756732     2.4212678545     3.8604074399
 F     -1.7359292643     1.6970825132     3.3002776194
 H     -2.4220681216     2.1011841182     1.7863941467
 F     -2.7492850614     2.5444741480     1.0533784417
 H     -1.9456180287     5.7679022172     2.3644151252
 F     -1.4495111886     5.9699079002     3.1087004920
 H     -1.4631357004     4.6747285784     4.1958641778
 F     -1.6136085446     3.9003212604     4.6633470427
 H     -2.8404698430     4.2210846794     1.0711421073
 F     -2.8284249330     5.1364700727     1.1241845613
          10
Energy: -37.176304026253945 Kcal/mole
 H     -1.6285327285     2.5862704018     4.0986396518
 F     -1.7765774060     1.8485089578     3.5745405913
 H     -2.3262141949     2.1931343184     2.0079907943
 F     -2.6195014146     2.5669424871     1.2236827810
 H     -1.5830265210     5.6493313516     2.3249648936
 F     -1.6111696937     6.0191760968     3.1636017794
 H     -1.4086013826     4.8182788291     4.3552669508
 F     -1.3551353841     4.0535749037     4.8585146964
 H     -1.9548701263     4.0566767360     0.7544376333
 F     -1.6044260167     4.9040441016     0.7476204686
          10
Energy: -37.3639748942137 Kcal/mole
 H     -1.8830051060     2.7289609013     3.9803133212
 F     -1.8018826359     1.9541351147     3.4966262888
 H     -2.2898356503     2.1465756230     1.9048062918
 F     -2.5484292287     2.5122766470     1.1046306096
 H     -3.2773623793     5.6149302912     2.2658242688
 F     -3.3672762453     5.7954717794     3.1603684364
 H     -2.4758736399     4.9117700635     4.1686713418
 F     -1.9345503797     4.2994108142     4.5844528682
 H     -2.7720840126     4.1390028659     0.7722459280
 F     -2.8981439441     5.0465546523     0.8089562618
          10
Energy: -37.463656241629195 Kcal/mole
 H     -1.2596191843     3.0058108810     3.5189410111
 F     -0.7786255529     2.4145559099     3.0090864381
 H     -0.8734853029     2.4473018874     1.3707690040
 F     -1.0737611106     2.5069969930     0.4778999793
 H     -4.0182658235     4.1507589768     1.4835603402
 F     -4.2755286740     4.3102158165     2.3491689942
 H     -3.1022166914     4.3324598513     3.6302903993
 F     -2.3322986042     4.1811885005     4.1048766586
 H     -2.4289709875     3.3528488275     0.1529932119
 F     -3.2370093711     3.7842064127     0.1094776474
          10
Energy: -37.61014967529587 Kcal/mole
 H     -1.7425774778     2.5355282504     3.6125526326
 F     -1.2727327401     1.9949351926     3.0399322800
 H     -1.9713722028     1.8809101173     1.5285194971
 F     -2.5001923178     1.9989457811     0.7887182616
 H     -3.9969595301     4.9052327623     2.1721761110
 F     -3.9190459013     5.2467425808     3.0196367357
 H     -3.2338950665     4.2039025936     4.0708250662
 F     -2.7392989548     3.5377027586     4.4612625978
 H     -3.4254224569     3.3323285414     0.6806555241
 F     -3.9360667959     4.0926043553     0.7266125254
          10
Energy: -37.40754244884246 Kcal/mole
 H     -1.6947509530     2.6403777977     3.2534205267
 F     -1.6057910243     1.7892347761     2.9239805656
 H     -2.2016907975     1.6457908067     1.3757847311
 F     -2.5415843818     1.6799883089     0.5247900882
 H     -3.8255906992     4.8136836536     1.2046664865
 F     -3.4674769103     5.3019546045     1.8933137059
 H     -2.3589886615     4.7582831877     2.9978962199
 F     -1.7597790517     4.2945845130     3.5144428127
 H     -3.6016184792     2.8529888124     0.1055301485
 F     -4.1117563791     3.6116799063     0.0345643324
          10
Energy: -37.59230663090278 Kcal/mole
 H     -0.9921831167     4.0877544671     3.1377611408
 F     -0.5603906665     3.3350536767     2.8413057476
 H     -1.4074537007     2.2756011760     1.9081078461
 F     -1.9908120353     1.7852738962     1.3980478377
 H     -4.3972680400     3.6955266556     3.1185975802
 F     -4.3090181202     4.3611252753     3.7431609709
 H     -2.8077454609     5.0355234378     3.7934414904
 F     -1.9499186717     5.3091569146     3.6198128059
 H     -3.5700782916     2.1773321881     1.6648812547
 F     -4.3650887247     2.5453480563     1.9358272493
          10
Energy: -37.64896696946184 Kcal/mole
 H     -0.5387819965     4.4626541487     2.9678486379
 F     -0.2828828028     4.4081409487     2.0889670113
 H     -1.2969235105     3.7167472516     1.0075461619
 F     -1.9684154028     3.2996273252     0.5427896606
 H     -4.0122875663     3.2418365265     3.4012454080
 F     -3.6920308618     3.3677091273     4.2512340735
 H     -2.1829302496     3.9678688326     4.5174590838
 F     -1.3420662431     4.3307507405     4.4710538737
 H     -3.4618330368     3.0187927977     1.2546954208
 F     -4.2276428933     2.9649296840     1.7562161369
          10
Energy: -37.58274988245893 Kcal/mole
 H     -0.9732982754     4.5368686469     3.1904778833
 F     -0.6349889912     4.3218828115     2.3657252424
 H     -1.3704236169     3.0720304999     1.6110509133
 F     -1.8878445683     2.3613411903     1.3501193817
 H     -4.1405987006     2.8305506332     3.8086306268
 F     -3.8941753284     3.2321252893     4.5953340762
 H     -2.6257285330     4.2485825546     4.6729313203
 F     -1.8764754927     4.7605385341     4.5409845257
 H     -3.4666370361     2.1677419902     1.8169995056
 F     -4.2846853462     2.2304165198     2.2265820561
          10
Energy: -37.64866321720959 Kcal/mole
 H     -0.4476948147     3.2151279713     3.7814727556
 F     -0.0415881684     3.0573415244     2.9745837738
 H     -1.1058018883     2.7790358338     1.7417616089
 F     -1.7485536564     2.5403409155     1.1328413346
 H     -3.8204234140     1.9953339963     3.9329179631
 F     -3.6418899318     2.1831351368     4.8125460251
 H     -2.2652374813     3.0462895530     5.0904703350
 F     -1.4606317538     3.4845922559     5.0531961625
 H     -3.2313232117     2.0545676758     1.7524311295
 F     -3.9701755839     1.8515529278     2.2561881983
          10
Energy: -37.473961649893425 Kcal/mole
 H     -0.4334265505     2.8941878629     3.4816777390
 F      0.0842867378     2.6720111867     2.7581451028
 H     -0.8599783529     2.2266739056     1.4464516565
 F     -1.5365629185     1.9961406827     0.8720156211
 H     -4.1822179490     2.1624262211     3.3875819617
 F     -4.0978755929     2.4833787757     4.2424297988
 H     -2.5625148331     3.0126023634     4.4784652327
 F     -1.6687544432     3.2026626664     4.5556562083
 H     -3.0537469672     1.6915075547     1.4185382698
 F     -3.8549597828     1.5293224063     1.8340415811
          10
Energy: -37.58349187224894 Kcal/mole
 H     -0.8804500757     2.8535547125     3.2468115780
 F     -0.4622262911     2.9761563404     2.4399988942
 H     -1.2345161073     2.2628129168     1.2043570228
 F     -1.7218656108     1.7268483704     0.6421102206
 H     -2.6562876610    -0.1355541215     3.3490203275
 F     -2.2931212170    -0.0600923196     4.1876529350
 H     -1.8915228112     1.4903189233     4.5989149014
 F     -1.6570050254     2.3764994829     4.5749477566
 H     -2.7011361504     0.5727955136     1.2798980968
 F     -3.1833862089    -0.0167112694     1.7905894262
          10
Energy: -37.66868460667388 Kcal/mole
 H     -1.5944382066     3.4125809032     3.1185382291
 F     -1.5094396154     3.7886375469     2.2865252243
 H     -1.7236956163     2.6913157819     1.0640050048
 F     -1.8833528840     1.9750438045     0.5141386471
 H     -2.2780541100    -0.2195302794     3.2400905018
 F     -2.2445024589    -0.0400079246     4.1387200199
 H     -2.0023947634     1.5705523758     4.4960471986
 F     -1.8539932034     2.4741905988     4.4480478352
 H     -2.2213974220     0.4423488394     1.1233883133
 F     -2.3907720845    -0.3291060962     1.5892836943
          10
Energy: -37.62650070983307 Kcal/mole
 H     -1.2619893492     3.3541895274     3.4841039182
 F     -1.1789232913     3.6702933199     2.6273265711
 H     -2.1673492732     2.9504115074     1.4912368515
 F     -2.7604681985     2.4354514502     1.0180401906
 H     -2.8040585908     0.0022346049     3.6536414771
 F     -2.2533648931    -0.0178950064     4.3865945794
 H     -1.8188710491     1.5147222678     4.7997339491
 F     -1.5900379258     2.4016829731     4.8424552424
 H     -3.4250946076     1.0936951858     1.7702485585
 F     -3.7071866480     0.3687389389     2.2557910601
          10
Energy: -37.6020190140855 Kcal/mole
 H     -1.4918385964     3.4300332655     3.3166748342
 F     -1.6430892945     3.7754882526     2.4808081713
 H     -2.8264348233     3.0428911945     1.5923671947
 F     -3.3926295044     2.4709716332     1.1527985440
 H     -3.0949267287     0.1551572449     3.7138450808
 F     -2.7119050083     0.3495060993     4.5240375792
 H     -1.9556844423     1.7968654318     4.7849502057
 F     -1.5778703831     2.6324140248     4.7829289810
 H     -3.5560010868     0.8642119264     1.6823522907
 F     -3.5741379244     0.0711333186     2.1423374828
          10
Energy: -37.615554339430474 Kcal/mole
 H     -1.5774433974     3.6799773250     2.9365511035
 F     -1.7473729079     3.8215971559     2.0466315650
 H     -2.9246233945     2.9188507795     1.3010884917
 F     -3.6048009289     2.3706255522     1.0223473541
 H     -2.8258193221     0.3495964906     4.0009060624
 F     -2.2691761115     0.6012387154     4.6848019074
 H     -1.6705804634     2.1882644368     4.6728105985
 F     -1.4387189728     3.0601287651     4.5085490929
 H     -3.8315692744     0.9550742429     1.9564128931
 F     -3.7988219008     0.3057376111     2.6030801554
          10
Energy: -37.46497118475844 Kcal/mole
 H     -1.6073246340     3.7785507321     2.9022898109
 F     -2.2601762255     4.1097921918     2.3500644087
 H     -3.3364022916     2.9623949301     1.9005762005
 F     -3.8417158584     2.2160593901     1.7316665770
 H     -2.5376256022     0.4364993735     4.1125733225
 F     -1.6982626299     0.5656709256     4.4585119165
 H     -0.9702367358     2.0608590585     4.1487874059
 F     -0.6741359932     2.9005340622     3.9293352736
 H     -4.0975405359     0.9436377327     2.7530673724
 F     -4.0225119034     0.2783552669     3.3796924159
          10
Energy: -37.752570326706405 Kcal/mole
 H     -1.8082945147     3.9405193837     2.9943890966
 F     -2.2924513622     4.1971427607     2.2591166373
 H     -3.5539951725     3.1901997452     1.8964035248
 F     -4.1704631882     2.5138652458     1.8378558468
 H     -2.5001907882     0.6085212395     4.1924553729
 F     -1.9627066472     0.9479936645     4.8533322683
 H     -1.3396255522     2.4203207947     4.5562210811
 F     -1.0336457045     3.2314913454     4.2574441234
 H     -3.8023805217     1.0173292182     2.4376522879
 F     -3.4629801762     0.2826674680     2.8688929612
          10
Energy: -37.71363218919245 Kcal/mole
 H     -1.9715493381     4.0850993453     3.1111510561
 F     -2.5253168145     4.3022081872     2.4132296186
 H     -3.7058067192     3.2525486362     1.9548136201
 F     -4.3027266000     2.5733775459     1.8021627573
 H     -2.6492471673     0.7257550776     4.2262397771
 F     -2.2051505495     1.1136544072     4.9285227003
 H     -1.5397031111     2.6052408790     4.7324200283
 F     -1.2468412274     3.4306542156     4.4607331848
 H     -3.8552425851     1.0881334899     2.4428341881
 F     -3.4756292903     0.3511540930     2.8348088236
          10
Energy: -37.82478298882833 Kcal/mole
 H     -2.3889885036     4.1256810582     3.2712502440
 F     -2.7367164836     4.2918952717     2.4391762767
 H     -3.6702779358     3.0943932752     1.7682831333
 F     -4.1294583142     2.3361114007     1.5336536833
 H     -2.7876687538     0.5961664638     4.3071133230
 F     -2.2034502156     0.9117062681     4.9395786039
 H     -1.9000019186     2.5630386120     4.9119195177
 F     -1.8538813964     3.4611123544     4.7324050315
 H     -4.0030202122     0.9481278894     2.4461420420
 F     -3.8345444752     0.2776565176     3.0486145025
          10
Energy: -37.695510157163966 Kcal/mole
 H     -2.2008970261     3.9799313194     3.3024114279
 F     -2.3612175118     4.1410677997     2.4140301041
 H     -3.2761850835     2.9947834913     1.6132948520
 F     -3.7807018564     2.2848649537     1.3262974725
 H     -2.8978208390     0.4832924728     4.2921335107
 F     -2.3600461643     0.8277715431     4.9501772550
 H     -2.1112972125     2.4383298319     4.9329034618
 F     -2.0399399915     3.3485811649     4.8478172837
 H     -3.9253547228     0.9432902795     2.2975782603
 F     -3.9296908751     0.3140673018     2.9646229680
          10
Energy: -37.738613949787805 Kcal/mole
 H     -2.2328727910     3.9097304260     3.1993896954
 F     -2.5537402006     4.1251774373     2.3678154709
 H     -3.2194887937     2.9025531416     1.4914370529
 F     -3.5872561140     2.1465437210     1.1252595631
 H     -2.9852540328     0.5041577277     4.1844807628
 F     -2.3844945615     0.7522159967     4.8313533568
 H     -1.9790610770     2.3561425458     4.8234712989
 F     -1.8502631127     3.2517034844     4.6742376239
 H     -3.9749975502     0.9827077499     2.2573707942
 F     -4.0834773955     0.4216818892     2.9745674945
          10
Energy: -37.760563606342316 Kcal/mole
 H     -2.3455609114     3.8828353935     3.1424171598
 F     -2.4082084871     3.9765001355     2.2323670527
 H     -2.9700165227     2.7126530317     1.3106246223
 F     -3.3144062046     1.9297259148     0.9800041802
 H     -3.1816593020     0.4545272376     4.2047835710
 F     -3.0686191994     0.8895727052     5.0040622310
 H     -2.5822834655     2.4437437313     4.9014719100
 F     -2.3025911516     3.2965545842     4.7133898566
 H     -3.3449559983     0.5907354982     1.9479722979
 F     -3.3528042119    -0.0509856154     2.6029695635
          10
Energy: -37.731503873151496 Kcal/mole
 H     -1.9333969843     3.7385445742     3.2200285942
 F     -1.8333929055     3.8094961235     2.3112634640
 H     -2.3888915268     2.5724450233     1.3198669200
 F     -2.6948269058     1.8209598393     0.8925935157
 H     -3.1247112012     0.4579718442     4.2146078459
 F     -2.9729708448     0.8521390984     5.0285464431
 H     -2.4205559572     2.4149341079     4.9675285033
 F     -2.1965343366     3.2902817959     4.8111004413
 H     -3.0938140499     0.5928038190     1.9404015125
 F     -3.3080957870     0.0112657741     2.6162608467
          10
Energy: -37.77854966002883 Kcal/mole
 H     -1.7346246124     3.6730405938     3.2910598446
 F     -1.5369570436     3.7458695701     2.3985843701
 H     -1.9252563626     2.4439987420     1.4812751388
 F     -2.2192691103     1.6738804034     1.0795746924
 H     -3.2673032702     0.4691624686     4.3119438638
 F     -3.2194638860     0.9109417258     5.1140856725
 H     -2.5929234491     2.4277161732     5.0266512910
 F     -2.2306237510     3.2452879208     4.8236627047
 H     -2.9473792518     0.5110329656     2.0310395750
 F     -3.2795018280    -0.0018998584     2.7147672346
          10
Energy: -37.82046229788665 Kcal/mole
 H     -1.6767414860     3.5688066891     3.3992799360
 F     -1.5230151753     3.6770499133     2.5017607854
 H     -1.7993959429     2.3708635455     1.5136707228
 F     -2.0409761931     1.5747008533     1.1281153438
 H     -3.3517828250     0.4617375933     4.2349091760
 F     -3.2105175937     0.8222268995     5.0661616013
 H     -2.4706184435     2.2872126785     5.1139408344
 F     -2.0601020096     3.0940266621     4.9675972202
 H     -3.0139333696     0.5654142422     2.0056451016
 F     -3.4732777362     0.0770557823     2.6312630101
          10
Energy: -37.8294270684905 Kcal/mole
 H     -1.7477456810     3.5822615294     3.3803383511
 F     -1.6518422986     3.7015389358     2.4762009492
 H     -1.9606739611     2.4059363967     1.4812823005
 F     -2.1713188933     1.6108682425     1.0758389102
 H     -3.4105730800     0.4822429128     4.2276110980
 F     -3.2248778268     0.8149874543     5.0616898371
 H     -2.4845885543     2.3022864639     5.0848115642
 F     -2.0390982192     3.0935000364     4.9567161153
 H     -3.1055704178     0.5993315447     1.9859422011
 F     -3.5816590778     0.1395910226     2.6206604379
          10
Energy: -37.829842470837264 Kcal/mole
 H     -1.6883534419     3.5551147826     3.3678384353
 F     -1.5926278908     3.6898671082     2.4658587073
 H     -1.8586609458     2.3655459088     1.5211144415
 F     -2.0864396128     1.5590000668     1.1489724208
 H     -3.3418796163     0.4051254502     4.2206611824
 F     -3.1281678205     0.7530877449     5.0417205650
 H     -2.3626140051     2.2319166407     5.0776474397
 F     -1.9681007679     3.0447319885     4.9208688821
 H     -3.0749870680     0.5351711137     2.0192253526
 F     -3.5525837640     0.0285375629     2.6159772619
          10
Energy: -37.835574903022064 Kcal/mole
 H     -1.7578033773     3.5714053529     3.3812433289
 F     -1.6669570678     3.6774013873     2.4749316889
 H     -1.8613152736     2.3388317237     1.5495002726
 F     -2.0236338793     1.5160613284     1.1785682750
 H     -3.3202773779     0.3825538613     4.2222923864
 F     -3.1401771523     0.7389301950     5.0477915187
 H     -2.4236634228     2.2571305551     5.1097325120
 F     -2.0325362122     3.0733788489     4.9626025422
 H     -3.0166109055     0.4681213377     2.0116248802
 F     -3.5030614913    -0.0186244133     2.6177052392
          10
Energy: -37.86539676153208 Kcal/mole
 H     -1.7993977307     3.5764156876     3.3958856409
 F     -1.7192567650     3.7049098773     2.4914766246
 H     -1.8978655035     2.3580758122     1.5610861918
 F     -2.0595485600     1.5424176857     1.1744993192
 H     -3.3765793359     0.3871588534     4.2253895070
 F     -3.2126562043     0.7597317447     5.0470997039
 H     -2.4809803978     2.2549286598     5.0992108926
 F     -2.0616094919     3.0584433719     4.9599946913
 H     -3.0054335388     0.4616080137     2.0148897081
 F     -3.4951384979    -0.0241048417     2.6191752987
          10
Energy: -37.874512639366486 Kcal/mole
 H     -1.8104790220     3.5807018231     3.4006983238
 F     -1.7282107708     3.7078650898     2.4962921991
 H     -1.8961551923     2.3558046904     1.5492899102
 F     -2.0522576002     1.5347148793     1.1720200329
 H     -3.3676996428     0.3903384380     4.2222397934
 F     -3.2131272515     0.7595630751     5.0472667889
 H     -2.4748096535     2.2517375053     5.0991985379
 F     -2.0619368356     3.0586126553     4.9599953466
 H     -3.0015608679     0.4609332972     2.0175051696
 F     -3.4953439342    -0.0240690496     2.6190365546
