          10
Energy: -37.88042897567831 Kcal/mole
 H     -2.1977788666     3.5109125994     2.1105513455
 F     -1.5906496093     3.4669705047     1.4247290965
 H     -2.1674129782     2.9941490356    -0.0641426371
 F     -2.6306044204     2.7088915075    -0.8023640338
 H     -5.4705889842     2.1644107101     1.1981277514
 F     -5.5362953249     2.3157316931     2.1001663520
 H     -4.2729470383     3.0691298373     2.8640376904
 F     -3.4976953681     3.4730130790     3.1410795193
 H     -4.2142473255     2.2253379832    -0.6487870146
 F     -5.0681886317     2.0004840076    -0.4015746864
