          10
Energy: -37.88449368571992 Kcal/mole
 H     -1.9519790521     4.3915258116     1.4444816339
 F     -1.3154148954     4.1871156770     0.8168738174
 H     -1.7756041866     3.3511854001    -0.5434117576
 F     -2.1856333229     2.9059904909    -1.2322997022
 H     -5.2960800365     3.5311188701     0.3383988223
 F     -5.4383494726     3.9717670532     1.1299021933
 H     -4.1175805525     4.4394202762     2.0214611770
 F     -3.2984692670     4.6390881814     2.3821250505
 H     -3.8396502205     2.7735215471    -1.2028833039
 F     -4.7420311919     2.7824808380    -1.0400419286
