          4
Energy: -0.0033499443621569634 Kcal/mole
 He     0.9624293477     0.9795876436     0.9970686559
 He    -0.7631094181    -1.8105575849     3.9306733402
 He    -7.2922851802     2.2267095475    -7.3856326283
 He     5.4466977820    -3.5454209187    -0.4579956146
          4
Energy: -8.23197782302332E-4 Kcal/mole
 He    -3.1113737820    -4.3349796896     0.8574200083
 He    -0.9210030460    -1.4687685081     7.1344115209
 He     0.3517014081    -7.3691219244    -2.5474312238
 He     2.4623293626     5.0555308436    -0.9048838171
          4
Energy: -8.860245583532575E-4 Kcal/mole
 He    -5.3425776675    -3.6156442576    -0.9895773843
 He    -4.7398074642     3.5302461198     4.9237820591
 He    -2.4702794058     3.4967737227    -0.3089783350
 He     2.8740696173    -0.7467686934    -5.0016356992
          4
Energy: -0.042689704579066366 Kcal/mole
 He    -2.4695130647    -3.5724313511    -7.2081649037
 He    -4.5423843513    -4.1566166836    -5.3152353993
 He    -5.0272200681     2.2599635609    -6.4446104981
 He     0.0688092095    -4.4192494448    -6.1338728671
          4
Energy: -0.010758758461096704 Kcal/mole
 He    -4.9949976800    -6.7146994489     4.7537782754
 He    -4.7677420938    -6.6628167120     1.2182291304
 He     5.4113475087    -2.6482649804     3.3894326692
 He    -5.5858535914    -1.2642997796     0.7438296031
          4
Energy: -0.01882239478480786 Kcal/mole
 He     3.9801486345    -3.9198360906     3.5995268363
 He    -4.3573397570    -3.8246539548    -3.8451354291
 He     2.7189208851    -4.6475009538     6.2564010646
 He     2.0345341034    -2.3146573333    -4.2272939436
          4
Energy: -0.011282070068111256 Kcal/mole
 He    -6.1756570556    -2.1090369471     5.6544984956
 He    -4.8507135495    -6.1959400653     7.1681146251
 He    -2.6916869068     4.6328007044     0.1872631790
 He     0.8878520771     4.1652126005     0.1630205441
          4
Energy: -0.06210855622447239 Kcal/mole
 He    -1.3250433534     2.7897938519    -3.0767081928
 He    -4.9598541797    -1.9266265328    -2.5759160589
 He    -0.3642087967     0.2922007810    -1.8130935530
 He    -3.7650839621     1.1776160312    -2.7651863382
          4
Energy: -0.08987341040849874 Kcal/mole
 He     6.0216156629    -4.2722070794    -0.8075232936
 He     3.1764274014    -2.9919732972    -1.8067966156
 He     6.7164769166    -1.8165322919    -2.5139805655
 He     4.8952806679    -4.4804733429    -3.3831156436
          4
Energy: -0.11996064717524471 Kcal/mole
 He     5.7545428541    -4.0067650543    -0.7841199213
 He     3.5369755795    -2.5562122197    -1.8865926098
 He     6.2212530377    -1.8470525567    -2.5859401006
 He     5.0880318609    -4.2858431903    -3.5654464540
