          4
Energy: -0.0033299029101289145 Kcal/mole
 He    -1.3136461215    -2.8117629363    -2.1136771010
 He    -5.2836435582    -6.3442353699    -6.9763586123
 He     3.4724661632    -3.3754610799    -5.3441310953
 He     7.3490143935    -3.4687049589    -3.0054132599
          4
Energy: -0.0088835873465607 Kcal/mole
 He    -2.2976454651    -6.9890264880     0.0492193026
 He     0.2485405206     3.3526012822    -7.1539396482
 He     0.2955054739    -6.5480096328     2.5288035859
 He    -6.0653531644     7.1259693801    -5.6730102134
          4
Energy: -0.0044627609043017945 Kcal/mole
 He     6.8263717681    -4.6584631275     6.4526056468
 He    -0.9566486587     2.1891818044    -7.4247421858
 He     3.4047137130    -4.1973457174     4.2458337501
 He     5.4779727098     6.7469818083     1.1261859698
          4
Energy: -0.019522634141200854 Kcal/mole
 He    -4.0841104630     2.9303045698    -3.6886927753
 He    -3.8301229557    -6.2536893385     0.2034213071
 He     4.8357621680    -0.3303847488     1.1688974127
 He    -1.8878955894     2.8530000426    -5.4165475743
          4
Energy: -0.0256132475101985 Kcal/mole
 He    -1.7342057553     0.6459446530     2.8284140581
 He    -1.6765244395    -2.8563322849     0.0312420879
 He     1.6249049409     1.3011536175    -0.6053188726
 He    -2.0607923879     2.4627912592     0.1088354324
          4
Energy: -1.3303989154820738E-4 Kcal/mole
 He     6.1304767254    -0.5143666480    -3.4185801841
 He    -1.8169081848    -6.3709778058     3.0449757087
 He    -4.0149235910     1.1893870082     5.4125155571
 He     6.0255313488    -1.4010506370     7.3914985994
          4
Energy: -8.007754971083399E-4 Kcal/mole
 He    -0.1532027722    -2.0067858116    -5.3429972430
 He    -4.6607614262    -6.9655720964     3.2558142539
 He    -0.1400930343    -7.3850272210    -3.7665166898
 He     0.9853586862     6.6910421528     3.7391292399
          4
Energy: -0.05407469426467135 Kcal/mole
 He     4.1917373215     2.3386050436    -0.3170860745
 He     2.1545280433     1.6381431647    -2.8462918925
 He     1.8103786765     4.8146440525    -0.3910016635
 He     2.3492042349     0.7251555751     1.3998067347
          4
Energy: -0.10115245995377596 Kcal/mole
 He     4.6629320005    -0.1500054718    -2.0285786814
 He     2.1273514793    -0.9978813054    -1.0358165717
 He     5.1719828044     1.9107251974     0.1137987387
 He     2.6769110085     1.7463388718    -1.2121299461
          4
Energy: -0.11995228945197119 Kcal/mole
 He     4.6766469606    -0.1361628078    -2.0051022533
 He     2.1968030715    -0.9981662627    -0.8468537360
 He     4.2403850346     0.1569061079     0.7986082900
 He     2.7752388122     1.7890778770    -1.0600107926
