          4
Energy: -0.01330611115589745 Kcal/mole
 He     2.3010094586    -4.4588790301    -5.9362795330
 He     0.8109301330    -7.0505734904    -7.3680325129
 He     6.3035497558    -6.5916922647     4.0288843374
 He    -7.4797249181     2.8039371206     2.0380581534
          4
Energy: -7.823466042579108E-4 Kcal/mole
 He     3.3800986608    -3.6231944975    -2.5505234259
 He    -5.8149700421     7.2120255101    -0.9185011878
 He    -3.7531864458     2.9191809729    -4.6225516741
 He     4.7070658340     2.3685355418    -0.0153115537
          4
Energy: -3.5865212056142987E-4 Kcal/mole
 He     5.7215581306     5.0212274732     6.7598513425
 He     3.6680681093    -4.0620844657    -2.3389592242
 He     5.5610852093     1.8595783578    -4.4062133114
 He    -1.3982399714     6.9991224164    -3.8382652351
          4
Energy: -0.004544467057386924 Kcal/mole
 He    -5.4318758607     6.5401802238     2.7139553177
 He    -2.7133832309     7.0049588229    -1.9892548804
 He    -7.4597550847     3.5477397038    -5.8126139969
 He    -2.8776168398     3.0214476688    -5.0563114943
          4
Energy: -0.00293143850560127 Kcal/mole
 He     7.3312271108    -0.7724492297    -6.6927349620
 He    -3.2461421429    -2.9186658457    -2.9256399515
 He     3.8965113348    -5.4078243072    -4.7066093272
 He    -0.7437573611    -6.0718764469    -6.4318202017
          4
Energy: -3.033158263298268E-4 Kcal/mole
 He    -5.7693745608     1.1250028997    -6.0355480393
 He    -5.7843518727     5.4199134641     1.5201150861
 He     0.9581399929     4.8165459221     6.0930232814
 He     5.3165170230     5.3237936955     0.3747922896
          4
Energy: -0.024469420986733038 Kcal/mole
 He    -5.5903761593     3.5096239779    -4.1407797409
 He    -2.4435901246     6.4917869930     0.0463849581
 He    -6.4422551546    -0.4104588216    -5.8868640560
 He    -6.3905870967    -1.5636731623    -3.3107791891
          4
Energy: -0.025010970863212675 Kcal/mole
 He    -1.6468325136    -3.9018007512     4.0847944844
 He     1.5390595945    -4.9471077627     6.1353611819
 He     2.7357826937     5.4551712111     6.8627077328
 He    -3.5384919254    -3.3546352742     1.8470024437
          4
Energy: -0.10390006478295191 Kcal/mole
 He     0.4330144680    -4.5321223349     2.6759293029
 He    -0.0981827866    -4.3497670412     5.4250220032
 He     2.5834150852    -3.2460331573     4.3565737065
 He    -0.7332373462    -2.2390643202     3.7304632753
          4
Energy: -0.1199731662185945 Kcal/mole
 He     0.3626143515    -4.4722080778     2.5532223763
 He    -0.0239114601    -4.5134967166     5.4010206219
 He     2.1820215194    -3.0478791542     4.2695232793
 He    -0.5063535234    -2.0976846889     3.9171437065
