          12
Energy: -39.62177060819266 Kcal/mole
 H      2.9550765076    -1.4417436850     0.0317150357
 F      3.4934146464    -0.7132269754    -0.1109189433
 H      2.1239623609    -0.5123052642     4.2890304521
 F      2.2371489316    -1.4147566184     4.4059036891
 H      2.6425989765     0.8133571861     2.5320773623
 F      1.8411618113     0.6984312658     2.9626345631
 H      1.4721918094    -2.8123419030     3.5870256228
 F      1.3261926526    -3.4869828133     2.9833428515
 H      4.1796054387     0.0198809086     1.1644703639
 F      4.2537729694     0.5226319216     1.9277721367
 H      1.6323503533    -3.2328261070     1.1731697100
 F      1.5546221207    -2.7807832862     0.3791265059
          12
Energy: -38.56184771327888 Kcal/mole
 H      2.5214397548     2.2440001801    -0.0689120673
 F      2.8017159557     1.7020369872    -0.7534631237
 H      5.5868367544     0.8273049118     3.1164128619
 F      5.0988709447     1.5351531735     3.4353630256
 H      5.3255466277    -0.7699133500     1.4322235575
 F      5.5379165418    -0.8451449796     2.3211151265
 H      3.7958439921     2.6347485548     3.6930084453
 F      2.9358315152     2.9133359375     3.8468154989
 H      4.1674950638     0.2051480227    -0.3884628979
 F      4.8239348875    -0.4029827708    -0.1880815214
 H      1.9565774387     3.3888266825     2.3926804016
 F      1.7999090077     3.3241757444     1.4914788376
          12
Energy: -43.35342930034807 Kcal/mole
 H      6.4789198054     5.2204778495     1.0678824189
 F      7.2709075837     4.7776883194     1.2004787656
 H      3.2669184843     3.1038581837     2.3828096641
 F      3.3565892226     3.4444249065     1.5361323548
 H      6.2518703095     2.8337741222     4.5074798757
 F      5.6104039569     2.4069163839     5.0046743947
 H      4.0167331682     2.2812921205     4.3807735652
 F      3.2722119855     2.4841634392     3.8853742954
 H      7.4440189291     4.2298724096     2.6312818892
 F      7.3187582309     3.8754870333     3.4677086718
 H      4.1541553513     4.8892373828     0.9077231886
 F      4.8250117658     5.5081125552     0.8192122166
          12
Energy: -40.21996684699005 Kcal/mole
 H     -0.6590547646     5.5088005105     1.5784376810
 F     -1.3441517892     5.8301418120     2.0963863606
 H      3.1991933519     5.9722417274     2.4510362282
 F      3.2562958880     5.7884675071     1.5544564290
 H      0.5576917051     5.1089394241     5.7850266547
 F      1.3265181007     5.5949790690     5.9014759443
 H      2.2081743943     6.1780845342     4.6997094140
 F      2.6664664238     6.3846010604     3.9327619972
 H     -0.7022272846     5.3125532951     3.5836969434
 F     -0.7520988365     4.8529206862     4.3756184630
 H      1.7245845044     5.2343977516     1.0165961221
 F      0.8521825759     4.9519231950     1.0200602295
          12
Energy: -35.832575776895425 Kcal/mole
 H      0.9179914370     1.9500634950     3.0722154805
 F      0.6990428557     1.2359624291     2.5402284634
 H     -0.7502348030     4.2966920553     0.3880634539
 F     -0.9991553563     4.6519846350     1.1959587076
 H      2.4510851934     1.2906737026    -1.1717857481
 F      1.6863705879     1.4977119865    -1.6335602831
 H      0.6914650870     2.8931797169    -1.0347278712
 F      0.0126861808     3.4810392874    -0.8487996007
 H      2.2916903396     0.8187552589     1.2056546825
 F      2.8500902803     0.5675052453     0.5230479605
 H     -0.1094193821     4.2542052424     2.9724680943
 F      0.5820352567     3.8434874462     3.4130249855
          12
Energy: -39.67621894250817 Kcal/mole
 H      1.8876981427     3.4258166531     4.5860090229
 F      1.2216025854     4.0528281621     4.5222730354
 H      4.2350687482     4.8468488049     2.0950767075
 F      4.4224480573     4.9563128612     2.9860287909
 H      0.9172311226     4.9760575760     0.5867056854
 F      1.4733948103     4.8444629931    -0.1304092415
 H      2.8544875925     4.3693600558     0.4446073350
 F      3.7285214598     4.1882472580     0.6547309972
 H      1.0505122434     4.8407755878     3.1850830435
 F      0.9263216287     5.2952826385     2.3983880377
 H      4.0101545602     3.6984101820     3.8475681053
 F      3.7518909449     2.8443965394     4.0593453544
          12
Energy: -34.242208909521764 Kcal/mole
 H      0.3964487844     5.0442628682     2.3748785454
 F     -0.4437466280     5.4100912480     2.4084979672
 H     -0.4857115458     1.7519950084     2.6568375991
 F      0.2621569904     1.7589579133     2.1262406047
 H     -3.6313884627     4.9435835710     5.0374797187
 F     -3.5032815177     4.0408200150     4.9400344899
 H     -2.2853768317     2.5470843071     4.2222982417
 F     -1.8121711197     2.0265238278     3.6340957752
 H     -0.9481139554     6.8047839877     3.7544280733
 F     -1.0873283239     7.0779275048     4.6186624042
 H      1.4485629997     3.0548574725     2.1130991371
 F      1.8063003822     3.8934385871     2.0146375740
          12
Energy: -39.01945628190428 Kcal/mole
 H     -2.7975346323     2.8960316828    -1.8753239362
 F     -3.5866593563     3.3094743371    -2.0926631677
 H     -0.3925217391     0.3351604580     1.0007356648
 F      0.1831214565     0.6263745729     0.3490315520
 H     -4.0844584031     0.3237008399    -0.8666939421
 F     -3.6408379352    -0.4775515360    -0.8210375002
 H     -2.8714354433    -0.1864274212     0.8661643920
 F     -2.4266001308     0.0590679220     1.6295401718
 H     -4.7425520139     2.5275194951    -1.0572788577
 F     -4.9387718968     1.8483842059    -0.4731880971
 H     -0.8960291564     1.4651801709    -0.6880151394
 F     -1.4019271077     1.9372066436    -1.2898018724
          12
Energy: -39.98854369818535 Kcal/mole
 H     -4.2171144084    -1.4887304729     5.6956173922
 F     -4.9173611146    -1.6132280932     6.2744471539
 H     -5.0412809641    -2.2521483418     2.0599469232
 F     -4.6387140225    -1.6189771718     2.5871310723
 H     -7.1141604323    -3.1319760194     3.7261741288
 F     -6.7952990236    -3.8170565514     3.2066733428
 H     -6.0324366521    -3.9515501219     1.6852628115
 F     -5.5258971806    -3.5770531350     1.0188854630
 H     -6.3537094372    -2.0142572306     5.5295891944
 F     -7.1776859609    -2.0628271083     5.1300986997
 H     -3.1747102365    -1.7149476524     3.8336981900
 F     -2.9342715737    -1.2739267267     4.6008870797
          12
Energy: -41.90344813829776 Kcal/mole
 H     -5.2849062561    -2.5753082970     1.1803893937
 F     -4.7266836476    -3.2024803800     1.5490785551
 H     -6.5405125279    -0.8011983842     4.2522977584
 F     -6.7804949734    -0.5018679067     3.4194119973
 H     -5.9640419112    -4.3133706653     4.4617468252
 F     -6.1368817858    -4.0112128689     5.3101076233
 H     -6.0440007372    -2.4372030255     5.5207479227
 F     -6.0400641283    -1.5364018199     5.6923016783
 H     -5.6149109011    -4.7041005953     2.1795215562
 F     -6.0365995722    -5.1431766045     2.8652911405
 H     -6.4743287114    -0.8462665858     1.5059823155
 F     -6.3595248600    -1.4094662303     0.7914788263
          12
Energy: -43.69823925136285 Kcal/mole
 H      0.1721235881     0.0334132274    -0.6052393639
 F      0.6554260061    -0.4219864598     0.0271520480
 H     -3.6708178616     1.8997978395    -0.4516032832
 F     -3.3809510537     2.1518840006    -1.2842609566
 H     -0.8678263073     1.6174334864     2.6559153576
 F     -1.4652255192     2.3062112371     2.7538356910
 H     -2.9855362041     1.8890691931     1.8738812026
 F     -3.5410366475     1.5468221245     1.2295402980
 H      0.5206601388     0.0849448649     1.7003911065
 F      0.3261195380     0.3967256500     2.5405313904
 H     -1.8272328219     1.5929584894    -1.3977701678
 F     -1.0185743851     1.1605911353    -1.4021295028
          12
Energy: -39.618677424655274 Kcal/mole
 H     -1.9230444013    -0.6120241380    -0.7254828932
 F     -2.3397165827    -1.2597767575    -0.2277984176
 H     -1.5018668609    -1.1056075036    -4.8357541552
 F     -1.0217672341    -1.0512812612    -4.0563684948
 H     -4.9327188073    -1.6049825951    -3.0557512746
 F     -5.2351986185    -1.4166904453    -3.9007015868
 H     -4.1649126518    -0.9699847117    -4.8820649391
 F     -3.5389523544    -0.5493828004    -5.4037513759
 H     -3.4105284602    -1.9845163782    -1.1864990270
 F     -4.0583850487    -2.1303352149    -1.8188815912
 H     -1.2907330390     0.0747966735    -2.7148771774
 F     -1.6416343821     0.5237123665    -1.9963843466
          12
Energy: -43.36166916699733 Kcal/mole
 H      1.0723914713    -4.1275386113     2.0576064811
 F      0.8227443997    -3.2472113797     2.1175172896
 H     -1.5119731651    -6.5418302124     3.4129593889
 F     -1.0055377207    -7.0478825468     2.8399644715
 H     -2.8206384510    -3.3898532315     2.0375248585
 F     -3.4790649364    -3.3750527040     2.6756036215
 H     -2.7722498546    -4.4741120381     3.6424321158
 F     -2.3215895364    -5.1540066504     4.0614041839
 H     -0.5418219108    -2.9795401656     1.3159314512
 F     -1.4035240612    -3.0619664773     1.0133355040
 H      0.3209927867    -6.4004809654     2.0904559333
 F      0.9501147715    -5.8286747186     1.7467523628
          12
Energy: -39.99718144471291 Kcal/mole
 H      2.3548204422    -5.3117422089     5.5052040343
 F      2.5602790327    -4.9273556479     6.3120018648
 H     -0.5914994488    -6.8247689575     5.2176239496
 F      0.1400124661    -7.3581583956     5.0717643399
 H     -0.8386211731    -3.5250390910     6.6068356093
 F     -1.3327142477    -3.1998372187     5.9061182798
 H     -1.7643184343    -4.8472763919     5.1684592023
 F     -1.8238016610    -5.7622377114     5.1544403008
 H      1.0791490395    -5.1342386136     7.3684049591
 F      0.1656375941    -5.0776821496     7.3119496188
 H      1.3108826123    -6.6550599492     4.1698550475
 F      2.0181692386    -6.1170343364     3.9436625005
          12
Energy: -40.29997181339762 Kcal/mole
 H      4.7043381324    -1.6035818180    -1.2830206029
 F      5.0227369470    -2.3716271461    -0.8962162998
 H      1.4106533045    -1.5037876173    -3.4467208785
 F      2.1145908355    -0.9756228666    -3.7044085744
 H      1.3048149888    -4.3296482144    -0.2951667299
 F      0.4561487030    -4.5123834788    -0.5905687584
 H      0.2312451136    -3.5273382951    -1.8714011835
 F      0.2915034924    -2.7829632198    -2.4035324409
 H      3.8780346173    -3.1848291387    -0.2547730608
 F      3.0378254644    -3.5422584004    -0.1700269559
 H      3.3230647736    -0.2356768796    -2.4237642251
 F      3.9026185972    -0.1715729055    -1.7160234209
          12
Energy: -41.66740262059325 Kcal/mole
 H      5.3201750958    -0.1322636895     1.6082046572
 F      5.2822650500    -0.5570103017     2.4200187639
 H      2.3679641325     2.2095602954    -0.2832927827
 F      3.1988275302     2.4212765895    -0.6084561650
 H      2.2269884814     0.3171049719     3.7132570523
 F      1.4587746447     0.5741105202     3.2835075332
 H      1.2419048092     0.7247405100     1.4650108239
 F      1.4586426852     0.9896884651     0.6142956693
 H      4.3222769391    -0.7129815421     4.0122077401
 F      3.6097112645    -0.4323161314     4.5165549286
 H      4.3958056643     1.2520358442    -0.1694536084
 F      5.1161663632     0.7807489856     0.1465498097
          12
Energy: -42.528342316285176 Kcal/mole
 H      1.4126618494    -1.4025607892     5.4347267726
 F      2.2731571884    -1.3696532818     5.7499312580
 H      1.7946338868    -1.1007641729     2.2316011490
 F      1.4168641092    -1.8565860991     2.5878485504
 H      2.9800702521     1.6160755073     4.7483810094
 F      2.7319675705     1.8997461562     3.9123995369
 H      2.5723893256     0.9204755291     2.5291129405
 F      2.5712949854     0.3519314066     1.8096371708
 H      2.6692245365     0.1548452417     6.1841948920
 F      3.1804998594     0.9138547657     6.2424279297
 H      0.3461722474    -1.6876337316     3.9326905333
 F     -0.0540107475    -1.3426758147     4.6821881024
          12
Energy: -41.08021418369054 Kcal/mole
 H      4.6545882064     2.6366638440     5.1526894425
 F      5.1691919500     2.0924575438     4.6236228211
 H      0.8074303665     4.0216541509     3.6200395509
 F      1.0923394037     4.0526702651     4.4911043253
 H      2.9979571176     1.4324381918     1.4051940566
 F      2.4494505221     2.0526406584     1.0110133681
 H      1.2313037507     3.0713614975     1.6857439431
 F      0.5154284885     3.5463910494     2.0063036627
 H      4.6543291247     0.9897231001     3.3598856273
 F      4.2787369819     0.5592116442     2.6426134136
 H      2.5604088791     3.4285632918     5.2662703793
 F      3.3518172588     3.6209964815     5.6876149462
          12
Energy: -43.43744454785309 Kcal/mole
 H      4.4818154150     3.8394028019     2.4119774155
 F      3.9460558933     3.4478257726     3.0448424604
 H      2.9288827078     7.1587662555     1.5355458346
 F      3.8196597682     7.0350974020     1.7147419373
 H      0.6979651739     4.2592676115     1.2992705140
 F      0.4280242277     4.9196213447     0.7231161662
 H      0.7255440607     6.6415836916     1.1391819465
 F      1.2166374600     7.3810836530     1.3690864492
 H      2.3997932075     3.3091036709     2.6974637959
 F      1.5125296092     3.3080911604     2.4658363321
 H      4.9906259755     5.6871332494     1.1632708979
 F      5.3710528729     4.8573649390     1.2507290412
          12
Energy: -39.70535109065385 Kcal/mole
 H      1.4400098612     3.9979618838     4.0691499721
 F      1.1533525531     4.1291127438     4.9302632281
 H      1.5886762338     6.9530552415     0.1204853811
 F      2.3490575109     6.5617154182     0.4514875807
 H     -1.1986383564     6.4219826927     3.5318383616
 F     -1.3882556668     6.6081897525     2.6541930993
 H     -0.3971424049     6.9994243760     1.0470227765
 F     -0.0849373293     7.3276137583     0.2497093375
 H     -0.1197995404     5.2409992910     5.2553408964
 F     -0.7443838720     5.9103393596     5.2027359034
 H      2.5279696589     5.6174660173     1.8268427870
 F      2.5801122693     5.0118295916     2.5134100948
          12
Energy: -42.097467061067135 Kcal/mole
 H     -2.5666333164     1.8712449928     2.7021510355
 F     -2.6449819077     2.7240650978     3.0299442122
 H      0.1616415193     3.1901384444     0.7412035623
 F     -0.3849535933     2.5523517091     0.3733029463
 H      0.2664719050     4.3899382889     4.1294280983
 F      0.6182791080     5.2045800285     3.8981716864
 H      0.9371814892     4.9451688629     2.3521282691
 F      0.9471116774     4.5515030332     1.5239872148
 H     -1.4064731894     2.9420320182     4.0456653829
 F     -0.5857929049     3.1300203524     4.4090291909
 H     -1.3993792443     1.1185408488     1.1468733759
 F     -1.9090600256     0.6730061954     1.7654308702
          12
Energy: -43.08699064700319 Kcal/mole
 H      0.5924061386     3.0128218368     2.0026844383
 F     -0.0817340489     3.4778949972     2.4151537864
 H      3.1811960799     4.9922527429     2.3427252725
 F      3.4841107058     4.4356513837     1.6799080607
 H     -0.0636547523     4.6034082962     4.9505693331
 F      0.7541413768     4.9709948702     5.1428675440
 H      2.0607569780     5.4557162924     4.3220061146
 F      2.8781037780     5.5906089087     3.9287667591
 H     -1.2414443072     3.6804750816     3.7037166279
 F     -1.5490713509     4.0830786316     4.4680234926
 H      2.6306790100     2.9438975030     1.3863722213
 F      1.9633316943     2.3159727242     1.3510588772
          12
Energy: -41.497134604295354 Kcal/mole
 H      3.6809475296     5.6362871079     3.4122654186
 F      3.5277545713     5.7762216272     4.3054838957
 H      5.5110393836     2.6702286661     2.7224946327
 F      5.1489290225     2.9229651341     1.9188222094
 H      4.5620627279     3.8543611131     6.4250833654
 F      4.3083713640     2.9751847598     6.3652616997
 H      5.1806822551     2.5953369363     5.1671177422
 F      5.6022360814     2.4908749161     4.3594859834
 H      4.3489661113     5.5542328284     5.7853853730
 F      4.7918719827     5.3587513725     6.5641731422
 H      4.4711660752     4.4696755183     1.7096372530
 F      3.9106715426     5.1732868183     1.8875867332
          12
Energy: -41.829435036001314 Kcal/mole
 H      3.2784992292     4.5187998115     3.5139612315
 F      3.2745288002     4.4875372377     4.4304195705
 H      5.1783752573     2.3962692359     1.7472466676
 F      4.3289565680     2.0890626028     1.9053636332
 H      6.9237909296     4.8365070090     4.3184767440
 F      7.4930360335     4.3194723874     3.8189527589
 H      7.0680696201     3.8551532293     2.0930394075
 F      6.5669798003     3.3946998344     1.4784007628
 H      4.7342429325     5.0323819435     4.7434852585
 F      5.4881075596     5.5526871486     4.7866085410
 H      3.7133099999     3.5788810038     1.7581679922
 F      3.5909959111     4.4693191422     1.9399595911
          12
Energy: -43.72347061228976 Kcal/mole
 H      2.5009921892     4.5888737432     4.2801938532
 F      2.2809788164     3.7112333765     4.1310948839
 H      4.2811846095     6.8315122741     1.7679286391
 F      3.4028546562     7.0935318946     1.7401579428
 H      5.4798806028     3.3511080596     2.8356731465
 F      6.1489805822     3.9779926004     2.8211821122
 H      6.0176383773     5.5382239617     2.3400362778
 F      5.7694334382     6.3942298216     2.1243112768
 H      3.4074785365     2.7505118367     3.5987432658
 F      4.1297379034     2.2772802880     3.2900649408
 H      2.9354964124     6.5596780687     3.3046689689
 F      2.9676804675     6.1303419749     4.1143131532
          12
Energy: -43.45260536174342 Kcal/mole
 H      2.1771098656     3.4271940436     0.1375315255
 F      2.6531968890     4.1104820782    -0.2463273131
 H      0.4694133557     4.3186945937     3.4909146088
 F      0.1826878267     3.8555457946     2.7532353690
 H      4.0318302751     5.2742075755     2.5893519952
 F      3.6743435977     5.0150074044     3.3930357307
 H      2.1740743368     4.9553442455     4.3856895422
 F      1.3173727641     5.1371851442     4.6575080532
 H      3.8222966611     5.0012010659     0.4957810462
 F      4.3783926848     5.5867286539     0.9302964730
 H      0.7173386915     2.8210366775     1.5895473133
 F      1.0916294724     2.3007277422     0.9337470211
          12
Energy: -43.49534266819782 Kcal/mole
 H      2.4502873690     3.0209009766     3.5999925634
 F      3.0173082366     2.9520837638     2.8826080592
 H      3.0067545344     6.1585615397     5.0257497885
 F      2.6521633424     5.5643284985     5.6274483670
 H      3.7026542695     5.5768008443     1.1803415592
 F      4.1904994596     6.1413215131     1.7134573863
 H      4.0690913248     6.8741183793     3.2234010450
 F      3.8375705556     7.1933178935     4.0512892039
 H      2.6780721806     3.6067959953     1.3526830109
 F      2.6930926643     4.2657892385     0.7151947441
 H      1.5485880089     4.1441612626     5.2862728696
 F      1.4157249492     3.3233176521     4.8996824216
          12
Energy: -43.06842545066773 Kcal/mole
 H      4.1219286497     2.6583698114     1.5316068231
 F      4.3105776712     3.5195770283     1.2793714641
 H      1.5202974854     3.4790836017     4.0725080690
 F      1.8822478011     2.8854223229     3.4746391411
 H      4.1342859580     5.8519760073     4.5313971163
 F      3.5251180387     6.1544363465     5.1464753140
 H      2.0039643808     5.4209958473     5.1875754712
 F      1.2943111010     4.8501507384     5.0807247150
 H      4.7598107892     4.3835181353     2.4874904020
 F      4.9990507665     4.7707011472     3.2835698883
 H      2.8625485602     1.4957615845     2.5802096026
 F      3.5579554467     1.1924489938     2.0651370498
          12
Energy: -41.33626216837065 Kcal/mole
 H      2.2002438096     4.8343694725     0.0216503039
 F      2.8842865023     4.4772689098    -0.4737826206
 H      1.0269419135     6.7771620039     3.1619703703
 F      0.2147136183     6.9578390057     2.7765744473
 H      4.9753559257     5.0362414793     2.7232712011
 F      5.0077621278     5.7385884457     3.3119541182
 H      3.3932636877     5.8616489859     3.7707040908
 F      2.4781028623     5.9192276145     3.7780773698
 H      4.0860374739     4.2871993439     0.6685958297
 F      4.6504618722     3.9647793772     1.3154029599
 H      0.2944822118     6.1807491679     1.3549635096
 F      0.5664468368     5.7325149225     0.6026269467
          12
Energy: -43.618361173957425 Kcal/mole
 H      4.7655115499     2.9616002879     0.8804683435
 F      5.6630075879     2.8101898537     0.9921139536
 H      3.6570237097     3.8251505491     4.7101623201
 F      3.1222144253     3.5708489854     4.0100203745
 H      7.1507538727     2.9113589423     4.2907744267
 F      6.9958065896     2.7567640605     5.1812690993
 H      5.8082359949     3.8306865138     5.5983635966
 F      5.0869934030     4.3967623413     5.5823548172
 H      6.7314290371     3.3763101220     2.0096008859
 F      7.3163889845     3.5350560972     2.6977219329
 H      3.1074788906     3.3133714708     2.2935462814
 F      3.1245812073     3.1708053378     1.3878579197
          12
Energy: -44.41546756359074 Kcal/mole
 H      5.4766374156    -0.0427137125     2.6637784835
 F      5.9971324296    -0.7439404666     2.9435193989
 H      1.8885931763    -0.0378323832     3.7355029115
 F      2.0426605384     0.1684514345     2.8553897174
 H      4.6367405698    -1.6123605972     6.1625692160
 F      3.7849054560    -1.6141940886     6.5020726434
 H      2.6237333597    -0.6777940873     5.8884057811
 F      1.9742915059    -0.2854220737     5.3734703662
 H      6.2413258800    -1.3841555736     4.5672338412
 F      6.1332839978    -1.7468300509     5.4025081526
 H      3.5759365337     0.7078236318     2.2304762578
 F      4.4114633103     1.0296927136     2.0325260121
          12
Energy: -43.88426790101971 Kcal/mole
 H      5.2942447132    -3.6810744983     1.1515106606
 F      4.6035623451    -4.2721726321     1.0313030796
 H      3.9773315173    -1.0542182496     3.5161924618
 F      4.6112208344    -0.9120919001     2.8689881398
 H      2.0612559493    -4.1934899125     2.8981036847
 F      1.6365270263    -3.4187077098     3.1434745883
 H      2.2640487218    -2.1227164092     4.1468192585
 F      2.7340797232    -1.4071046415     4.4752391965
 H      3.6155072934    -5.1299910078     2.1165670938
 F      2.9060387700    -5.4742177307     2.5845963425
 H      5.6940440708    -1.7761498854     1.8729846687
 F      6.2515541956    -2.4530469785     1.6048768804
          12
Energy: -43.87139901722264 Kcal/mole
 H      2.3437279305    -0.5164219651     2.8651174865
 F      1.4725110796    -0.6525437071     2.6134409677
 H      4.9467839685    -3.2720906169     2.8980900792
 F      5.1330425803    -2.5880685942     2.3164453407
 H      1.8168445835    -4.6432755200     2.5151132617
 F      2.3100808933    -5.3853875763     2.7316233971
 H      3.8132432248    -5.0495226338     3.3923837318
 F      4.5221236923    -4.6642403892     3.8281991456
 H      0.9915797228    -2.2031557281     2.5682631629
 F      0.8133327768    -3.1026649950     2.5679392786
 H      4.6207912882    -1.1013502282     2.8556224536
 F      4.0888086357    -0.4413780369     3.2053654509
          12
Energy: -42.403495435504695 Kcal/mole
 H      1.6621341570    -2.8802442801    -1.3738926339
 F      0.9394374982    -2.6885426335    -1.9047871790
 H      2.5667495230    -5.4345672850     2.2426527821
 F      3.3202151061    -5.0186491495     1.9261236055
 H     -0.6932109946    -4.0626902972     1.0007067815
 F     -0.5052724478    -4.1691119506     1.8919096396
 H      0.3328441901    -5.4248932497     2.3866573749
 F      0.9455616561    -6.0477636795     2.6650433202
 H     -0.6291349553    -3.2629920688    -1.2641112058
 F     -1.1020648902    -3.4655324708    -0.5050304050
 H      3.1945987395    -4.0235732119     0.5319031152
 F      2.9747799858    -3.5197482180    -0.2020785543
          12
Energy: -44.487564473807765 Kcal/mole
 H      2.0157773526    -2.2214292763    -3.1276629070
 F      1.4414066968    -1.8610736921    -3.7450211520
 H      0.9115066395    -4.1714710994     0.3429763246
 F      1.8122379131    -4.2947790379     0.2231125468
 H     -1.7576307886    -2.7452730939    -2.5402641267
 F     -1.9401343300    -2.7081380661    -1.6423763570
 H     -1.2295189758    -3.5567176462    -0.4437792916
 F     -0.8415530742    -4.0267820829     0.2413563771
 H     -0.1405575670    -2.4322610761    -3.9117880776
 F     -0.9660714058    -2.8249771958    -3.9838293939
 H      2.5400024951    -3.7438135602    -1.2347385764
 F      2.7228432147    -3.2173850753    -1.9629770824
          12
Energy: -44.262979442302054 Kcal/mole
 H      1.3074088241    -1.4599302771    -3.1929069446
 F      0.5887847836    -0.9378751303    -3.4207817174
 H      1.0317107283    -3.8458245841    -0.3170095685
 F      1.9001293710    -4.0561453921    -0.5231726562
 H     -1.5592281011    -0.3024124251    -0.4924307977
 F     -1.8865244800    -1.0357838869    -0.0497883016
 H     -1.0253396797    -2.4222656296    -0.2885541717
 F     -0.5366606517    -3.1739048168    -0.4812205671
 H     -0.0748914712     0.1148049173    -2.3044163429
 F     -0.4190981790     0.5199859998    -1.5572623879
 H      2.1389276160    -3.1242998606    -1.9123847083
 F      2.3854996018    -2.5874560278    -2.6137333770
          12
Energy: -44.56412016789518 Kcal/mole
 H      1.1095396362    -0.7985232073    -2.4870426937
 F      0.4772031885    -0.2048910241    -2.7847681512
 H      1.1316728764    -3.6562664723     0.8538166915
 F      1.7842370633    -3.6258304438     0.2102930865
 H     -1.5090178514    -1.2151210728    -0.4585067932
 F     -1.2949420420    -1.2648690899     0.4317660204
 H     -0.6770878809    -2.5043889950     1.3895676489
 F     -0.1695925266    -3.1452146013     1.8051154892
 H     -0.9519950846    -0.8142895713    -2.4038718615
 F     -1.6600074521    -1.3093209163    -2.0963796584
 H      1.9037399570    -2.5037514423    -1.0229796665
 F      2.0572218355    -1.9771742035    -1.7578597414
          12
Energy: -44.356079126221914 Kcal/mole
 H      2.3017335302    -2.9443309027    -2.2662707608
 F      1.6665761093    -3.2909300129    -2.8295940317
 H      3.2954020133    -3.2724478850     1.6874729118
 F      3.7923684439    -2.5326895065     1.4714384044
 H     -0.5457612909    -3.7647401544    -0.1309337260
 F     -0.2512307085    -3.9732491173     0.7120756147
 H      1.2333761336    -4.3779327995     1.6075022007
 F      2.1008397403    -4.4538619742     1.8949576781
 H      0.1076519025    -3.0694332241    -2.1943572616
 F     -0.6569428228    -3.1003433857    -1.6890568875
 H      3.7321614514    -2.4780850339    -0.2175416132
 F      3.5040367416    -2.5440573990    -1.1032592679
          12
Energy: -44.183750866182564 Kcal/mole
 H      3.5333643210    -5.1819165198    -2.2029346590
 F      2.7327671330    -5.0855829003    -2.6395729262
 H      4.1770484593    -3.3100313519     1.5363899515
 F      4.7881034391    -3.5226580926     0.8865509862
 H      1.2315861989    -3.5411060427    -0.1512738226
 F      1.3909418167    -2.6625990213     0.0578199374
 H      2.3076081966    -2.5938915498     1.4750789755
 F      2.7957599850    -2.8161842493     2.2188415634
 H      1.5589131305    -5.0878920420    -1.4433799194
 F      1.1088641831    -5.0245007328    -0.6469337588
 H      4.7513743164    -4.7742045675    -0.2075306419
 F      4.6632983174    -5.3350360547    -0.9276692823
          12
Energy: -43.87577502273372 Kcal/mole
 H      3.7106263787    -1.6998543677    -2.8430470880
 F      2.8038322477    -1.6988100017    -2.9794740399
 H      5.2552365980    -2.7870454233     0.4869778553
 F      5.9387868358    -2.7687690523    -0.1240164546
 H      1.1332548650    -2.8400702117    -0.3220596429
 F      1.3785484655    -3.3562651867     0.3950615445
 H      2.7942327108    -3.0019029195     1.1539662945
 F      3.6728657196    -2.8467662908     1.3656870120
 H      1.5227497996    -1.4916701646    -2.0541593932
 F      0.8740699744    -1.5114203005    -1.4063064650
 H      5.6709940315    -2.1190248947    -1.6030049784
 F      5.2343616685    -1.7572872051    -2.3236900855
          12
Energy: -45.031433094071616 Kcal/mole
 H      0.7937001549    -4.0069972455    -1.9120720794
 F      0.3031736345    -3.2394682041    -2.0177693046
 H      4.0568829598    -3.2591041166    -0.6225231654
 F      3.8073751800    -4.1370439387    -0.5338860588
 H      1.3402742504    -1.1252551936     0.6217167076
 F      2.1362988974    -0.6708497630     0.6490930846
 H      3.4447387726    -1.0999006202    -0.3587007166
 F      4.0487834876    -1.6169466837    -0.8155183503
 H      0.0301071197    -2.4700250155    -0.5324640698
 F      0.0109853430    -1.9973557966     0.2530976192
 H      2.5185224314    -4.9902020057    -1.2710573524
 F      1.7272708696    -5.2604393049    -1.6475965511
          12
Energy: -45.22867014942139 Kcal/mole
 H      1.8332070052    -4.8849621740    -2.0964302251
 F      1.3658786502    -4.8015175150    -1.3118728993
 H      4.8994154791    -3.0580815157    -1.2643145733
 F      4.7657396851    -3.2486610879    -2.1512752313
 H      1.8790932408    -1.7233606255     0.3109189470
 F      2.6105665152    -1.4924139073     0.8134121931
 H      4.1597770304    -2.2025414539     0.5978324616
 F      4.9358620184    -2.6355815442     0.3718736786
 H      0.9387556610    -3.2539540466    -0.8807526145
 F      0.7684984835    -2.3635468616    -0.7426347723
 H      3.6337064990    -4.1067582879    -3.0810483248
 F      2.9005535302    -4.5754170401    -3.3704178089
          12
Energy: -45.29020655103645 Kcal/mole
 H      2.3718870409    -3.1456600997    -1.8835509972
 F      2.4517853785    -2.3217455632    -2.2781014911
 H      4.0570289335    -3.7908839997     1.6677200621
 F      3.9104530573    -4.5292240844     1.1440231728
 H      4.5325705716    -0.3965916950    -0.1690698889
 F      5.1765861625    -0.6679472968     0.4246464206
 H      4.8235120416    -1.7602169782     1.6719416049
 F      4.4357395514    -2.3439154461     2.2633954024
 H      2.9303385569    -0.8844466095    -1.6323101499
 F      3.2484730874    -0.1092144704    -1.2598929766
 H      2.9940027018    -4.5600914399    -0.2322675191
 F      2.4707435280    -4.5620893426    -0.9853178796
          12
Energy: -45.26974713242802 Kcal/mole
 H      2.5236297252    -2.9034921582    -1.8596175491
 F      2.5890366117    -2.0684577994    -2.2328849585
 H      4.3114589942    -3.2973148118     1.4417875591
 F      3.4734650308    -3.6681605569     1.4753814671
 H      4.5575684502    -0.0874589692    -0.1555519791
 F      5.4304184114    -0.1246453315     0.1230859932
 H      5.7836915889    -1.5914169127     0.8341082277
 F      5.7100663747    -2.3880509057     1.2822628985
 H      2.6866446703    -0.8131543969    -1.1719118041
 F      2.9667205492    -0.2233422721    -0.5280421282
 H      2.8878482584    -4.1075425155     0.0131172931
 F      2.6028424043    -4.2520763660    -0.8464003794
          12
Energy: -45.49718969564253 Kcal/mole
 H      2.0114808862    -2.6137745193    -1.2105664321
 F      1.7743198511    -1.7540804684    -1.4240372317
 H      5.6553699540    -3.7707962713    -0.5834207691
 F      5.0539400937    -4.3830281263    -0.2603986663
 H      4.7346029416     0.1149107187    -1.0906062142
 F      5.5489918869    -0.1854183942    -0.7948663456
 H      6.1261379700    -1.6409212526    -1.2067724199
 F      6.3324320269    -2.5064325726    -1.4286325492
 H      2.6143122253    -0.3461587787    -1.5711636483
 F      3.1783381846     0.3768588357    -1.5742044331
 H      3.4604723290    -4.3347415233    -0.7269098458
 F      2.5985505247    -4.1893966241    -1.0041365826
          12
Energy: -45.422785042614365 Kcal/mole
 H      1.5707027873    -2.5272987453    -1.5552876114
 F      1.5192270160    -1.6415663589    -1.7870577230
 H      4.5658344445    -3.7180050435     0.1323220912
 F      3.9296500724    -4.3330596042     0.3728763097
 H      4.2178262893     0.2546677892    -0.9184639734
 F      4.8496666068    -0.0030004595    -0.3058679510
 H      5.3489662237    -1.5231695048    -0.4682307539
 F      5.5165923982    -2.4226643254    -0.5290545431
 H      2.4247128337    -0.2544742253    -2.0788340450
 F      3.0568832107     0.4090505831    -2.0474582097
 H      2.5583134670    -4.3292955292    -0.5762659469
 F      1.8554657010    -4.0975806324    -1.1177474558
          12
Energy: -45.39958336545274 Kcal/mole
 H      1.4479597191    -1.8372935412    -1.3066940901
 F      1.6330682006    -1.6017463796    -2.1733782221
 H      4.1451796377    -3.0317759978     1.4000987814
 F      3.3885616364    -3.5429286187     1.4846043928
 H      4.1183585506     0.2615317267    -0.7084893873
 F      4.2929593204     0.2924474381     0.1912037771
 H      5.0569870183    -1.1255140983     0.8061316772
 F      5.3297576398    -1.9617016639     1.0655069712
 H      2.9851989487    -0.6544028604    -2.4248513854
 F      3.7327529181    -0.1282069123    -2.3529494584
 H      2.0686628899    -2.7964435464     0.7621275192
 F      1.4337669462    -2.2833338372     0.3443781123
          12
Energy: -45.657209162417956 Kcal/mole
 H      1.6628793107    -2.1170648713    -0.9503905812
 F      2.1091246952    -1.9867521788    -1.7408162001
 H      3.9048088959    -2.7621998879     1.8804594218
 F      3.0617166319    -3.0330036254     2.1186815241
 H      5.1009566262    -0.0588242594    -0.8743202190
 F      5.4571077091     0.0530768981    -0.0367501998
 H      5.3898688415    -1.3595138172     0.7725375714
 F      5.2864026991    -2.1679028192     1.1928838321
 H      3.4455895525    -1.0522967796    -2.0693959685
 F      4.2041679040    -0.5480401456    -2.1750990040
 H      1.7696573261    -2.5119391486     1.2232651335
 F      1.1491445194    -2.1840629191     0.6330532776
          12
Energy: -45.878017640956074 Kcal/mole
 H      1.8032509429    -2.0216192377    -1.0162237579
 F      2.2562423312    -2.1319800874    -1.8058491659
 H      3.7777007301    -2.4334084932     2.1929662920
 F      2.8981686718    -2.6013504346     2.3907233720
 H      5.0916981448    -0.1301477398    -0.8635135742
 F      5.4353192525     0.0210144801    -0.0268753503
 H      5.3927262008    -1.2706602393     1.0188926700
 F      5.2619456569    -2.0059690527     1.5509701064
 H      3.6066287712    -1.2013060596    -2.1543848360
 F      4.3563953028    -0.6775156995    -2.2205876062
 H      1.7746104345    -2.1148376561     1.2537045472
 F      1.2711737011    -1.7984042274     0.5556283761
          12
Energy: -45.972433069926154 Kcal/mole
 H      1.8264866816    -2.0548689944    -0.9995298184
 F      2.2550097289    -2.1302162646    -1.8067347409
 H      3.7590403224    -2.4167893009     2.1803946777
 F      2.8844565960    -2.5881263357     2.3963482054
 H      5.1078611219    -0.1671173239    -0.8570743772
 F      5.4691407837    -0.0063547438    -0.0297162934
 H      5.4011816038    -1.2670767598     1.0243662946
 F      5.2473731271    -2.0039418864     1.5480663402
 H      3.5645240947    -1.1764088964    -2.1586691042
 F      4.3079387854    -0.6431834515    -2.2210728105
 H      1.7777910486    -2.1354731143     1.2653027109
 F      1.2754954261    -1.8527572803     0.5520987676
