          12
Energy: -46.1022957677655 Kcal/mole
 H     -4.1896482215    -0.3261065889     1.7983574608
 F     -4.0462071938    -0.0780468453     2.6694372707
 H     -6.9792660808    -2.8327586391     0.8724078787
 F     -6.8749945233    -2.1278112253     0.2952895320
 H     -5.7276357916    -2.6345365192     4.4954124703
 F     -6.5610280246    -3.0007835931     4.3849160142
 H     -6.8952451301    -3.7001822581     2.9236739079
 F     -6.9986495403    -3.9828262141     2.0574701662
 H     -4.1012248143    -1.2308312495     3.8574712053
 F     -4.2312028054    -1.9296405077     4.4368332187
 H     -5.4104592623    -1.3570309861     0.2224171952
 F     -4.5907185955    -0.9577977343     0.3200238031
