          12
Energy: -0.7112598790819291 Kcal/mole
 H     -0.3321591379    -4.1148832743     1.8774087500
 F      0.5848408621    -4.1148832743     1.8774087500
 H      3.7540410344    -2.0374338457    -2.9329015782
 F      3.3942638893    -2.0374338457    -2.0894269752
 H     -2.8821560653    -4.2624050036     4.3554784569
 F     -1.9670809736    -4.2624050036     4.2960934702
 H     -2.9564680088     3.1579175766     0.4215128150
 F     -3.4825029125     3.1579175766    -0.3296038737
 H      3.7195680358    -4.7496869618    -4.5861096323
 F      4.6365680358    -4.7496869618    -4.5861096323
 H      0.4310729413     0.8971017933    -1.7198562533
 F      1.3480729413     0.8971017933    -1.7198562533
