          12
Energy: -45.972433069926154 Kcal/mole
 H      1.8264866816    -2.0548689944    -0.9995298184
 F      2.2550097289    -2.1302162646    -1.8067347409
 H      3.7590403224    -2.4167893009     2.1803946777
 F      2.8844565960    -2.5881263357     2.3963482054
 H      5.1078611219    -0.1671173239    -0.8570743772
 F      5.4691407837    -0.0063547438    -0.0297162934
 H      5.4011816038    -1.2670767598     1.0243662946
 F      5.2473731271    -2.0039418864     1.5480663402
 H      3.5645240947    -1.1764088964    -2.1586691042
 F      4.3079387854    -0.6431834515    -2.2210728105
 H      1.7777910486    -2.1354731143     1.2653027109
 F      1.2754954261    -1.8527572803     0.5520987676
