          12
Energy: -46.10402532935893 Kcal/mole
 H     -4.2522327079    -0.3699637084     1.7278239975
 F     -4.0743612524    -0.1161095155     2.5908470528
 H     -7.1688862133    -2.7491551307     0.9222197729
 F     -7.0683502359    -2.0429579498     0.3459671730
 H     -5.6569051700    -2.6828544449     4.4833717840
 F     -6.4999743661    -3.0377218501     4.4186226124
 H     -6.9759034950    -3.6684635529     2.9595366371
 F     -7.1594629951    -3.9154683025     2.0957174642
 H     -4.0611164318    -1.2812016713     3.7705467022
 F     -4.1596559508    -1.9870064426     4.3476243295
 H     -5.5651506922    -1.3619790462     0.2090380106
 F     -4.7189029687    -1.0147406923     0.2736856404
