          12
Energy: -46.09005363278203 Kcal/mole
 H     -4.4038209335    -0.2532195479     1.6279579083
 F     -4.1916216152    -0.0357075320     2.4931451552
 H     -7.3796608634    -2.5414309724     0.7566673184
 F     -7.2656034354    -1.8511026003     0.1639391836
 H     -5.8803839315    -2.4827236751     4.3812615894
 F     -6.7320233911    -2.8076190628     4.2810507215
 H     -7.2076366301    -3.4288482816     2.8233003528
 F     -7.3927229958    -3.6787992842     1.9606552731
 H     -4.2270827709    -1.1562516693     3.7114088745
 F     -4.3595296244    -1.8318781496     4.3171115161
 H     -5.7706306485    -1.1553380550     0.0731373578
 F     -4.9268245043    -0.8058953138     0.1554171338
