          12
Energy: -46.103708533919814 Kcal/mole
 H     -4.3438344501    -0.3221719326     1.7533388113
 F     -4.1630511705    -0.0847356626     2.6204203666
 H     -7.2131074002    -2.7528097005     0.9362970071
 F     -7.1237120079    -2.0460728607     0.3588712515
 H     -5.6745649145    -2.6983542078     4.4953118057
 F     -6.5134510807    -3.0640798764     4.4369702641
 H     -6.9971229853    -3.6815909087     2.9792016558
 F     -7.1872093139    -3.9218557414     2.1148932630
 H     -4.1138866829    -1.2662289284     3.7822191720
 F     -4.1918900964    -1.9809747751     4.3513789405
 H     -5.6432934997    -1.3126623179     0.2245347438
 F     -4.8089794722    -0.9376198994     0.2889729923
