          4
Energy: -0.19637982149529673 Kcal/mole
 Kr    -1.8641050634     6.4086568407     6.1162838126
 Kr    -0.3227951829    -2.6048815802     0.9140107027
 Kr     1.1247277280     2.2936008522    -5.3812576668
 Kr     1.0383066336     3.6915110827     2.9683500817
          4
Energy: -0.2893291200013024 Kcal/mole
 Kr     7.1115201571    -4.9250153477     7.3557700968
 Kr     7.1393067749    -6.1197982076     3.2038157315
 Kr    -2.1399421157     7.1433976110     5.8632219674
 Kr    -2.2912290088    -5.8264942110    -4.7795583204
          4
Energy: -0.3539235799039666 Kcal/mole
 Kr     3.0984259201     2.9494777822    -0.6516327005
 Kr     2.2814111601     0.6478188123     4.2391852929
 Kr     4.8467322305     5.8012981949     2.7805157297
 Kr    -7.3424454722    -7.3181666668    -3.4522536804
          4
Energy: -0.43743839139251356 Kcal/mole
 Kr    -4.2183830573     2.3975772439     0.3894050027
 Kr    -3.0253974659     1.0055148608    -4.7049794195
 Kr     6.9308080126    -5.7570808788    -0.6269642867
 Kr    -2.5137224547     5.0959501974    -5.6229410817
          4
Energy: -1.382668653059373 Kcal/mole
 Kr     2.1099106934     4.4457170593     0.5846282736
 Kr     2.6625086983     2.5516142522     4.5049544854
 Kr    -0.0476160321     0.6240273113     1.3180996708
 Kr    -1.8817255577     3.8433379127     0.3589491345
          4
Energy: -1.5887494847465127 Kcal/mole
 Kr    -6.6848932927    -0.8655051466     6.3918109329
 Kr    -3.8550703073    -3.3101427163     7.4395977645
 Kr    -3.9875616351    -2.1618984537     3.2649342599
 Kr    -1.9408668255     0.1851990625     6.6187873402
          4
Energy: -1.1170531274554816 Kcal/mole
 Kr     5.9896184475    -4.2412524012     5.2882791191
 Kr     0.9944062400    -3.3405442703     3.1897210856
 Kr     3.9008963154    -0.2626867666     2.9698402597
 Kr    -0.4555307157     0.2648602578     3.0359279288
          4
Energy: -1.7574617521954017 Kcal/mole
 Kr     4.8059446450    -2.6243719921     2.9448965117
 Kr     5.6651861716    -5.9644808682     5.0494366733
 Kr     2.7298742800    -6.5175381771     2.2878979295
 Kr     2.3046077254    -4.1751824472     5.5048390442
          4
Energy: -1.7922976905592156 Kcal/mole
 Kr     4.9955026605    -0.6817548477     2.7708308202
 Kr     5.9764433165     0.1267933447     6.4301830997
 Kr     2.1719558600    -0.8806407902     5.8815751295
 Kr     3.7564531741     2.6730389783     4.5994410713
          4
Energy: -1.9017576931598283 Kcal/mole
 Kr     5.0590043932    -0.5544825486     2.6901056087
 Kr     5.8473973113     0.2236930364     6.5948835979
 Kr     2.0828044820    -0.7759297770     5.4435839934
 Kr     3.6198933397     2.8328435519     4.4024804230
