          4
Energy: -0.05811055160015496 Kcal/mole
 Kr     0.1163281551     4.6914063941    -2.8478255713
 Kr     1.6913517533     6.1793360014     3.9262301372
 Kr     0.9715879670    -6.3642078907     0.1757654507
 Kr     2.9873255441    -3.3593338241    -5.5742331062
          4
Energy: -0.003871411897501104 Kcal/mole
 Kr     4.4406826772     4.4046941811    -6.6731504646
 Kr    -2.6313934443    -3.0965659393    -2.4169253643
 Kr     1.1522226442    -6.8727631250     7.3409348522
 Kr    -5.1041807989     6.4659404207     7.3762014027
          4
Energy: -0.4255479326702898 Kcal/mole
 Kr    -0.3348924105     6.6157092560     2.0414098880
 Kr    -6.3948528840    -6.7159733524     6.0197423521
 Kr    -4.8211205972    -6.8863542522     2.6026746322
 Kr    -1.1482214764     7.1148491041     6.6091279402
          4
Energy: -0.34805857747212393 Kcal/mole
 Kr    -6.8879227297    -2.5870273553     3.3269913017
 Kr     1.9101022074    -0.5031257535     6.2669354876
 Kr    -4.6657292612     2.2390516226     3.4028031272
 Kr    -6.6528767277    -5.0260888302     7.3721615548
          4
Energy: -0.4978523195411859 Kcal/mole
 Kr    -3.8337805312    -4.5612395639    -5.0534502513
 Kr     5.1735596504     4.2422994821    -4.2944975727
 Kr     7.3039394913     0.7275884330    -6.6608867806
 Kr     1.2634516461     4.2922084827    -6.3544285245
          4
Energy: -0.6321451344703073 Kcal/mole
 Kr     2.4804125602    -4.5665754912    -0.3753089057
 Kr     6.2552637080    -3.2195321681     0.5465623239
 Kr     3.8731243577    -7.2931542875    -3.5884636815
 Kr     0.7696614139     1.8194388100     6.9362538432
          4
Energy: -1.0931418657248706 Kcal/mole
 Kr     6.6085893441     1.5489371602     2.4122043091
 Kr     4.9577829879     2.3600988959    -0.9530301028
 Kr     1.7401594940     3.5937715643     0.9573396849
 Kr     1.9776353878    -0.3447278651     3.3697411055
          4
Energy: -1.5758070747684345 Kcal/mole
 Kr     5.1040813253     2.1517291313    -1.5760875834
 Kr     2.0349951472     2.0295429659    -4.1368288650
 Kr    -0.7774782671     4.8991738750    -4.4920112550
 Kr     1.7345731046     4.6199222432    -1.1349212724
          4
Energy: -1.7344561244361627 Kcal/mole
 Kr     5.1095248664     7.4867912192    -3.2323711164
 Kr     2.0381358832     5.3076859852    -5.3416321339
 Kr     5.5244672812     3.1452065778    -4.9444259565
 Kr     5.7818774575     6.4675502406    -7.0848529478
          4
Energy: -1.9017947813400446 Kcal/mole
 Kr     5.1826388027     7.1046994092    -3.0812163026
 Kr     2.1609030080     5.5194830060    -5.2955060052
 Kr     5.5062164355     3.3139941493    -4.5373751861
 Kr     5.6948254556     6.5006712373    -7.0738561236
