          32
Energy: -130.36947758176234 Kcal/mole
 H     -1.4893470371     6.7155756966     1.0143910471
 F     -1.0540873838     6.2171938381     0.3795260557
 H     -3.6196607894     4.0944264289     1.7459602928
 F     -3.6819278839     5.0003907186     1.6185220147
 H     -1.1760416759     3.6244627869     4.3242138814
 F     -0.9147633330     2.7570979266     4.1817329123
 H     -1.2599354116     7.6250902667     2.9211718125
 F     -1.9988025725     7.4763463295     2.3988313492
 H     -1.0312012653     0.5748581061     2.1883138252
 F     -1.8631818859     0.6835518190     1.8183369020
 H      0.5520586926     3.1708772030     1.3556555655
 F      1.3331114845     2.7169245397     1.5130484364
 H     -2.5207629764     5.4411244554     4.4829781417
 F     -1.6429408602     5.1974760442     4.5876336911
 H      0.9727715053     1.2705039949     2.2626522520
 F      0.5473442665     0.5870030846     2.7016592792
 H     -1.0389523821     4.6347735878     0.7935871568
 F     -0.9753139759     3.7756107611     1.1077183243
 H     -4.0478876426     5.6109835574     3.1357577023
 F     -4.0600126355     5.7412880702     4.0433714519
 H      3.4242472959     3.4676742165     3.4586704421
 F      3.4436947588     4.3691341517     3.2916950506
 H      2.4458707655     1.8158590633     4.5351178220
 F      3.1061248230     1.8983929942     3.9041330918
 H      0.5696260585     6.7836630469     3.5744185438
 F      0.2146979283     7.6250908801     3.6575703566
 H      0.3615193924     2.1969040439     5.0947737161
 F      1.1376971050     1.9899874429     5.5370662424
 H     -2.9532679983     1.8985097919     2.1777684225
 F     -3.5809785571     2.5430287084     2.3551488632
 H      1.9236736869     4.9543363026     3.1589871603
 F      1.0476803621     5.2254571410     3.1632516607
