          32
Energy: -130.30642540426976 Kcal/mole
 H     -1.6482895481     6.8902859562     0.9287219977
 F     -1.0588189200     6.4133747035     0.4130001388
 H     -3.6678371088     4.0866469094     1.3176295838
 F     -3.7956464625     4.9728022938     1.1194316930
 H     -1.7215319855     3.8128597819     4.2728470754
 F     -1.3439391832     2.9776852786     4.2446296198
 H     -1.9296431189     7.8630293111     2.8162034671
 F     -2.5012507393     7.6352314595     2.1363050430
 H     -0.8987029105     0.7984173129     2.3667057482
 F     -1.6554753483     0.8592937358     1.8524309788
 H      0.5397932103     3.5530752670     1.8855711407
 F      1.2994818062     3.1712434615     2.2290339619
 H     -3.2180781072     5.5540160652     4.0966868551
 F     -2.3585568254     5.3589572991     4.3497960093
 H      0.9633235101     1.6604021689     2.8618066516
 F      0.5426068757     0.9095858800     3.1782895325
 H     -0.9929262894     4.8503176876     0.8999241084
 F     -0.9351625755     4.0075928792     1.2568095953
 H     -4.4917015433     5.6217602625     2.5114283982
 F     -4.6745956570     5.7781022938     3.3962989607
 H      2.7704386604     4.1156169229     4.5969330360
 F      2.7447243125     5.0179145717     4.4354191814
 H      1.7871459259     2.3199844913     5.4408522038
 F      2.5453192514     2.5075473656     4.9603499909
 H     -0.2198670247     7.2376316490     3.8438688208
 F     -0.6996532328     8.0172069049     3.8982435848
 H     -0.3623499800     2.4559900602     5.5008622216
 F      0.2843481706     2.2797439077     6.1266479643
 H     -2.8916292804     1.9942159530     1.9979397610
 F     -3.5895588671     2.5865067738     2.0524821815
 H      1.3484988652     5.5304683388     3.7384409479
 F      0.5222435499     5.7838474310     3.4318627530
