          32
Energy: -130.34217786025107 Kcal/mole
 H     -1.5989222968     6.8292576154     0.9560931780
 F     -1.1754484442     6.3263125208     0.3168708943
 H     -3.7244728828     4.1701862414     1.6492324695
 F     -3.7707996324     5.0836710723     1.5837473867
 H     -1.1731361937     3.7530980152     4.1714525539
 F     -0.9574717408     2.8735329219     4.0274279363
 H     -1.3109191015     7.7661855352     2.8292293280
 F     -2.0701607883     7.6100635468     2.3392630172
 H     -1.1099246406     0.6223513554     2.0832346837
 F     -1.9361140653     0.7288667738     1.6998882346
 H      0.4603700465     3.2533261610     1.3014789301
 F      1.2294377764     2.7829284054     1.4692578872
 H     -2.4528802082     5.5587711123     4.3845984544
 F     -1.5655853872     5.3344991055     4.4420350935
 H      0.8677857949     1.3361287011     2.1974857502
 F      0.4523631053     0.6392566199     2.6248992401
 H     -1.1295852500     4.7393562449     0.7189796029
 F     -1.0635215107     3.8753728307     1.0190749918
 H     -4.0673230624     5.6570671170     3.1303063707
 F     -4.0285883455     5.7869675000     4.0372322289
 H      3.3241324583     3.5826330760     3.4108634358
 F      3.3598879228     4.4796718074     3.2239622291
 H      2.3351137950     1.9078223490     4.4928017127
 F      3.0005163132     2.0152680493     3.8710429891
 H      0.5591267257     6.9500899290     3.3483385712
 F      0.1956256917     7.7788593177     3.4963159300
 H      0.2454439471     2.2439058264     4.9965147863
 F      0.9991171095     2.0187881703     5.4678828009
 H     -3.0651466564     1.9344864020     1.9736833914
 F     -3.7136345332     2.5672352790     2.1150387324
 H      1.8800539775     5.1051957071     2.9196974242
 F      1.0222104273     5.4187275477     2.8378974947
