          32
Energy: -130.29944312170394 Kcal/mole
 H     -1.6755531569     6.8120668023     0.7467093101
 F     -1.2875758151     6.2963057461     0.0952853965
 H     -3.8241585213     4.2100159850     1.6458717448
 F     -3.8473655870     5.1239454351     1.5745738325
 H     -1.2922988283     3.9172202211     4.1394047026
 F     -1.1120012168     3.0303834399     3.9914104633
 H     -1.3298579057     7.8085973790     2.6027947642
 F     -2.0952306602     7.6181974160     2.1349898895
 H     -1.1848584565     0.7317931630     2.0334603244
 F     -1.9847135420     0.8474096339     1.6001548041
 H      0.3363673676     3.2842141793     1.1726127064
 F      1.1180624875     2.8481298461     1.3717915051
 H     -2.5197826936     5.7382724387     4.3425465147
 F     -1.6351824624     5.5057943312     4.4083139871
 H      0.7773865396     1.4256921541     2.1743260540
 F      0.3549421284     0.7590912075     2.6413088132
 H     -1.2592527937     4.7263785827     0.5365619300
 F     -1.1855654505     3.8733307606     0.8648431945
 H     -4.1361564764     5.7687915995     3.0913708846
 F     -4.0968941745     5.9527685851     3.9888673695
 H      3.3176466544     3.6398063920     3.1450130585
 F      3.3610321760     4.5255009283     2.9114496090
 H      2.2970993688     2.0838181938     4.3390364213
 F      2.9637127504     2.1150689733     3.7101175170
 H      0.5366599342     7.0367388408     3.2146536413
 F      0.1821347111     7.8813380867     3.2576998965
 H      0.1916823612     2.4997876138     4.8753193222
 F      0.9779814220     2.3323514507     5.3164405281
 H     -3.1661902932     2.0038080126     1.9085963849
 F     -3.8371089290     2.6076381614     2.0702946704
 H      1.8502534184     5.1443414638     2.8297489401
 F      0.9840093369     5.4423861601     2.8707312566
