          30
Energy: -121.83994903365789 Kcal/mole
 H     -2.2382978569    -7.5589730455     1.2615284421
 F     -2.9992406502    -7.5414333718     0.7501113665
 H     -0.8905550029    -2.8378215952    -0.4866837750
 F     -0.2143651397    -3.0988694533     0.0750192468
 H      0.7051941994    -2.5869021405     3.7259484571
 F      0.8602805188    -2.1057877181     2.9608562103
 H     -2.3134457057    -7.1725905674     4.8498658721
 F     -1.6190448225    -7.3653712861     5.4169037966
 H     -2.3926444092    -1.8843581985     1.8704534509
 F     -2.9585094370    -2.5836165259     1.6923423569
 H     -3.3216503428    -3.5172470892     3.0235155573
 F     -3.4412172617    -3.9960480159     3.7963948652
 H     -2.9739824860    -2.8759052830    -1.2596903446
 F     -2.1918315573    -2.4168514288    -1.3953313549
 H     -0.2450900915    -6.5650084994     4.9538020522
 F      0.4179517650    -6.0098280186     4.6487788888
 H     -3.8938072502    -6.1801291670     1.0465579742
 F     -4.2460792926    -5.3404707222     1.1550342578
 H      0.3595895041    -4.3775683117     4.9396752523
 F      0.2976849855    -3.4690205542     5.0473683481
 H     -0.4211429664    -1.1868645735     2.4704903297
 F     -1.2258581602    -0.8069988614     2.2490755660
 H     -3.5188096607    -5.6574446090     3.7293245449
 F     -3.4022581725    -6.5669738107     3.7371592053
 H     -4.3387336925    -4.3787780993    -0.2012138253
 F     -4.2841910000    -3.8770396857    -0.9668329598
 H     -0.4164917351    -4.1116307108     1.3650579490
 F     -0.6070795925    -4.6778440920     2.0607358022
 H     -0.6104720011    -6.3790545315     2.1563445507
 F     -0.8565209325    -7.2623645509     2.1457458213
