          30
Energy: -3.0243384498605863 Kcal/mole
 H      4.1318972119    -3.4027349338    -0.3065120504
 F      4.9515684724    -3.4027349338     0.1046181293
 H     -1.0282302439    -1.1999677196     3.4060286311
 F     -0.1148752714    -1.1999677196     3.4877090708
 H     -3.6993135966     1.6128803329    -1.9188039168
 F     -4.3171879668     1.6128803329    -1.2412197799
 H      5.3638044833     3.4424146048    -0.7459750577
 F      4.4493704205     3.4424146048    -0.8145268250
 H     -0.0080956187    -1.9429048703    -0.6997085834
 F      0.7266554203    -1.9429048703    -0.1510466559
 H     -4.8957599985    -2.6497844697    -3.2891980386
 F     -3.9787599985    -2.6497844697    -3.2891980386
 H      4.5580447530    -0.1294757659     1.5996081116
 F      4.7712854418     0.7623859995     1.5996081116
 H     -2.9688000457     5.4119247399     2.5664788038
 F     -2.5212091492     5.4119247399     3.3668233479
 H      5.3821251914     4.8880870703     4.6180936083
 F      5.8514563274     4.8880870703     5.4058862744
 H      1.4100890405    -3.7365491781    -3.7628755818
 F      0.8526238621    -4.4646436602    -3.7628755818
 H     -2.5626402072     0.2887543060    -5.3261835420
 F     -1.6456402072     0.2887543060    -5.3261835420
 H     -0.2355553553    -5.0059953071     4.5854939408
 F      0.6814446447    -5.0059953071     4.5854939408
 H      1.7322337481     4.1315162193    -5.0477317353
 F      2.3590536510     3.4621987989    -5.0477317353
 H     -4.5642236927     0.2122247079     5.1581049854
 F     -3.6472403680     0.2122247079     5.1636351150
 H     -3.9088868807    -4.8215134668     2.9897563505
 F     -4.4252616999    -4.8215134668     3.7475465893
