          30
Energy: -122.1961192089695 Kcal/mole
 H     -0.3105789668    -1.5998043377    -3.7815905120
 F     -1.1834181222    -1.4552960325    -4.0227505388
 H      1.4689163334     3.5327861360    -3.0877474271
 F      0.8510035153     2.9621519122    -3.4530546016
 H      0.0135231983     3.1909854764    -0.7125286931
 F      0.6092064572     2.5412145868    -0.4598465886
 H      3.1148206322    -0.4294991695    -1.1654661065
 F      2.6148534641     0.3163327817    -0.9793034588
 H     -0.1963832986    -1.0427036588    -0.8933580925
 F     -0.0884387004    -1.8784054155    -0.5316406093
 H      1.1678074555    -2.9481120631    -0.8231011533
 F      1.9281799894    -3.4356149353    -0.9814159012
 H     -1.5924077048     3.7695088590    -2.0670273780
 F     -1.1447768268     4.1500304730    -1.3629543006
 H      3.4270453361     1.7777684637    -0.8201354352
 F      3.8576050953     2.5868958449    -0.8487741288
 H     -1.2963609733     0.1322368619    -4.4312378850
 F     -1.1884946658     1.0201502744    -4.6333854344
 H      3.1441722501     3.7838126525    -1.7344435446
 F      2.6753143337     4.3258584640    -2.3064991297
 H      0.0396331280     1.1606545459    -1.1388299577
 F     -0.3646894201     0.4707573568    -1.5876663929
 H      3.2329134618    -2.4897362566    -1.3800209395
 F      3.8560993128    -1.8278043409    -1.4999147847
 H     -1.9388703865     2.2460966182    -3.7581591368
 F     -2.3567090507     2.8853008850    -3.2505000427
 H      1.5797857845     1.5682458746    -3.9683676064
 F      2.0893261794     0.8190893785    -4.1098671836
 H      1.6250012417    -0.6775509805    -3.5983422412
 F      1.2793384539    -1.4792427217    -3.3178131174
