          30
Energy: -122.25641970072022 Kcal/mole
 H      0.0333235684    -1.4325320517    -3.7300538975
 F     -0.8282622766    -1.3168247150    -4.0218939975
 H      1.1945652396     3.6702415147    -2.1093793152
 F      0.7111502289     3.0778493537    -2.6156109372
 H     -0.2848276591     2.8805916686     0.0722425369
 F      0.3575889804     2.2587831867     0.2760661695
 H      3.3344691701    -0.1365195227    -0.6843204451
 F      2.7538744937     0.4923864172    -0.3552670446
 H      0.1138543366    -1.2620371328    -0.6861887182
 F      0.3113852340    -2.1064972790    -0.3882665707
 H      1.7091302906    -2.9474799836    -0.7637726923
 F      2.5361529446    -3.2977331643    -0.9488273849
 H     -1.8437864469     3.4885012175    -1.3126547130
 F     -1.4791427602     3.8257818179    -0.5418332172
 H      3.2862449627     2.0060566476     0.1390193204
 F      3.5513598559     2.8732047417     0.2756109610
 H     -1.0473706547     0.3018114608    -4.1899663665
 F     -1.0043079204     1.2165668039    -4.2374770310
 H      2.6633035238     4.0168585407    -0.5270241095
 F      2.1423344321     4.5294093362    -1.0808940287
 H      0.0499664737     0.9480578565    -0.6621040731
 F     -0.2024769696     0.2810303724    -1.2385029310
 H      3.6744228753    -2.1288923736    -1.2470624634
 F      4.1932083186    -1.3744314400    -1.2974545593
 H     -1.9182595682     2.1821960388    -3.2212096421
 F     -2.4354402236     2.6663438953    -2.6389605350
 H      1.6229100287     1.8511867426    -3.2840337228
 F      2.2119438082     1.1858913170    -3.5105512789
 H      1.8611836251    -0.4106869570    -3.2717651537
 F      1.5699277445    -1.2691077756    -3.1332995980
