          30
Energy: -122.27006450709402 Kcal/mole
 H     -0.0953707586    -1.4756968100    -3.9500151558
 F     -0.9428657339    -1.2774941881    -4.2387312575
 H      1.5110253551     3.6646453995    -2.5829628928
 F      1.0295135988     3.0560945502    -3.0715335554
 H     -0.1290494076     3.1271072415    -0.4488681304
 F      0.4351655646     2.4712816282    -0.1448233475
 H      3.2412583286    -0.0540307029    -0.7129498305
 F      2.7443967249     0.5616503146    -0.2493180462
 H      0.0224725146    -1.1604848308    -0.8986556330
 F      0.1238763291    -2.0131528801    -0.5768428551
 H      1.5271839635    -2.8761758997    -0.8044189496
 F      2.3688459882    -3.2198143497    -0.9244466628
 H     -1.5329481604     3.7705923834    -1.9648054138
 F     -1.1635222468     4.1427980092    -1.2125578039
 H      3.3362322386     2.1067581425     0.0134917873
 F      3.6569575070     2.9656692485     0.0306968502
 H     -0.9342310291     0.3283467191    -4.5461012374
 F     -0.7712250323     1.2236067868    -4.6593595978
 H      2.8918026767     4.0612829926    -0.9314556584
 F      2.4339825158     4.5547595861    -1.5541679129
 H      0.1601204900     1.0778162029    -0.9841353495
 F     -0.0659387476     0.3799302125    -1.5343547290
 H      3.4425226181    -2.0489515990    -1.4048151183
 F      3.9258428928    -1.2833035513    -1.5499825362
 H     -1.6491678855     2.3367555592    -3.7600743530
 F     -2.1539782205     2.8876702502    -3.2285214122
 H      1.8652381931     1.6618286826    -3.4382153369
 F      2.4069255713     0.9241959543    -3.4961958713
 H      1.8618299885    -0.6472586153    -3.4406976696
 F      1.4591006191    -1.4685640145    -3.3762345305
