          30
Energy: -122.26223736562632 Kcal/mole
 H      0.0395136299    -1.4274032314    -3.7617182994
 F     -0.8186283287    -1.3108923064    -4.0632254856
 H      1.1976236333     3.6747075263    -2.0646012230
 F      0.7262720229     3.0780317063    -2.5771386608
 H     -0.3181827724     2.8382944736     0.0801361194
 F      0.3286792328     2.2255094690     0.2968227236
 H      3.3243010367    -0.1353337407    -0.6973772665
 F      2.7321015052     0.4694183053    -0.3445831653
 H      0.1373465732    -1.2874276085    -0.6949587764
 F      0.3474564773    -2.1305030219    -0.4017580337
 H      1.7560248148    -2.9431838843    -0.8049452001
 F      2.5866550236    -3.2773746946    -1.0030839361
 H     -1.8754687776     3.4294071918    -1.3324492733
 F     -1.5201415164     3.7603534840    -0.5545636203
 H      3.2668217416     1.9800361814     0.1495471970
 F      3.5390990328     2.8434677403     0.2952867585
 H     -1.0327592198     0.3070359271    -4.2153511249
 F     -0.9873657453     1.2221851927    -4.2518237757
 H      2.6572341002     4.0082344314    -0.4853080994
 F      2.1348197715     4.5342598183    -1.0250020511
 H      0.0406093001     0.9159794114    -0.6527284946
 F     -0.2041140751     0.2519640196    -1.2358948766
 H      3.6981816612    -2.0927123271    -1.3039746789
 F      4.2027062117    -1.3284642151    -1.3516066135
 H     -1.9274460018     2.1648919962    -3.2507632211
 F     -2.4567542388     2.6394861815    -2.6715550119
 H      1.6526248060     1.8549211452    -3.2425748587
 F      2.2435275445     1.1905356516    -3.4668846211
 H      1.8737323146    -0.4027668484    -3.2673915144
 F      1.5768140185    -1.2618325822    -3.1460053932
