          30
Energy: -122.24254855221136 Kcal/mole
 H      0.0783360464    -1.3689128951    -3.6754209479
 F     -0.7813177932    -1.2547596444    -3.9735036735
 H      1.3071082593     3.7196474445    -2.3178209308
 F      0.8104371052     3.1174836378    -2.7990750368
 H     -0.1706584461     3.0754434968    -0.1074165327
 F      0.4388446788     2.4335855621     0.1321942609
 H      3.3436572804    -0.1024911117    -0.7529209749
 F      2.7675781384     0.5739083657    -0.5259725905
 H      0.1182525720    -1.1130169040    -0.6657580561
 F      0.3165173888    -1.9424500927    -0.3286814360
 H      1.6650873145    -2.8635541703    -0.6903179738
 F      2.4733239179    -3.2589777112    -0.8671874632
 H     -1.7139980700     3.6879148620    -1.5288121018
 F     -1.3169287157     4.0483378808    -0.7849571594
 H      3.3680613445     2.0723249480    -0.0703970766
 F      3.6697351745     2.9298545324     0.0501222670
 H     -1.0345846923     0.3480318470    -4.2288256872
 F     -1.0196241662     1.2585877169    -4.3363114557
 H      2.8011651548     4.0782902484    -0.7717319063
 F      2.2823841182     4.5894895989    -1.3288947730
 H      0.0683219551     1.0948875434    -0.7418273669
 F     -0.2137552626     0.4077923272    -1.2796206424
 H      3.6727572595    -2.1445970601    -1.1345426991
 F      4.2201334992    -1.4103066136    -1.1802131742
 H     -1.8932343870     2.2942139316    -3.3581330575
 F     -2.3805438296     2.8289536023    -2.7946865278
 H      1.6970963849     1.8727121739    -3.4599168920
 F      2.2647364063     1.1890719673    -3.6864337215
 H      1.9232093519    -0.3774577123    -3.2893142229
 F      1.6238474517    -1.2191212962    -3.0822541729
