          6
Energy: -16.876208737131606 Kcal/mole
 H     -1.6012769698    -0.4925742251    -2.1116717716
 F     -1.1880682431    -0.2903822051    -2.9049346128
 H     -2.6781149295     0.8228393871    -1.1137599177
 F     -2.5969400177    -0.0185870572    -0.7583711553
 H     -1.8234737946     1.3433815366    -2.8148412402
 F     -2.3173429788     1.9789832934    -2.3755319692
