          6
Energy: -16.87205953341521 Kcal/mole
 H      1.7040742820    -0.5892618016    -1.3449460438
 F      1.9982249684     0.2486257816    -1.5736571532
 H      0.2358639162    -0.8922296358    -0.0875048183
 F      0.6418186810    -1.6259516511    -0.4586405526
 H      0.7985933592     0.9477721038    -0.5192473006
 F      0.1058146683     0.8464962046     0.0729434438
