          6
Energy: -16.650358280223656 Kcal/mole
 H      1.2319419829    -1.4186873850    -0.8396009520
 F      1.6356271328    -1.2130067479    -1.6368604927
 H      1.1509796546    -0.0335678566     0.5534761807
 F      0.8026729565    -0.8357874606     0.8291846338
 H      1.8934409791     0.4618530780    -1.1825478909
 F      1.8704415609     1.0961980169    -0.5207574971
          6
Energy: -16.7253353229695 Kcal/mole
 H      0.8963427392    -0.4287961052    -0.9888790687
 F      1.3671658330     0.0176361819    -1.6368858799
 H      0.9336214762     0.0750910313     0.9441968172
 F      0.4786052055    -0.6827423133     0.7001930977
 H      1.9586152604     1.0726033824    -0.4622295475
 F      1.9750240314     1.4060122928     0.3918537335
          6
Energy: -16.76493216292465 Kcal/mole
 H      1.5974438076    -0.9481492096    -0.8111385886
 F      1.3546969757    -0.4971735207    -1.5717856182
 H      1.7792466205    -0.0772739329     0.9509680835
 F      1.9714453249    -0.9717023310     0.8881469194
 H      1.1717143256     0.9973268117    -0.6596626446
 F      1.2764307110     1.4624173272     0.1236727185
          6
Energy: -16.8068191411906 Kcal/mole
 H      0.7897597505    -0.8685827286    -0.6907844958
 F      0.9061124153    -0.3523367704    -1.4396777913
 H      1.0179585835    -0.1078995734     1.1497605253
 F      0.7942098381    -0.9924595107     1.0582224663
 H      1.2606160131     1.0838725090    -0.4602440289
 F      1.3444613009     1.4454024373     0.3782993979
          6
Energy: -16.723695525859227 Kcal/mole
 H      2.0600918253    -0.9407452594    -0.6444749954
 F      1.9847994741    -0.4422327451    -1.4104419235
 H      1.9765757269    -0.1165343880     1.1452753648
 F      2.1422221642    -1.0178782848     1.1131905162
 H      1.6679734733     0.9881680975    -0.4205585221
 F      1.5869042334     1.4247999641     0.3817315697
          6
Energy: -16.700157856929025 Kcal/mole
 H      2.0835803765    -1.0299358622    -0.8833559804
 F      2.5606106645    -0.5209942024    -1.4785950007
 H      1.0737074435    -0.2190885077     0.6275662245
 F      0.9914227790    -1.1291159426     0.5503114405
 H      2.0786695546     0.8610333781    -0.6173498320
 F      1.6449304246     1.2751047465     0.0764111275
          6
Energy: -16.792839722836618 Kcal/mole
 H      2.2367311837    -1.1525436446    -0.6751520824
 F      2.9019682957    -0.5977046023    -0.9759879546
 H      0.5059242941    -0.4182049019     0.0094264149
 F      0.6454349067    -1.3242232865     0.0330161525
 H      1.8907620208     0.8346153226    -0.6692154482
 F      1.0762101594     1.1769790310    -0.4238965611
          6
Energy: -16.856771867769737 Kcal/mole
 H      2.2408037559    -1.0109913722    -0.4155271683
 F      2.9412947428    -0.4479412220    -0.5976697107
 H      0.4291220458    -0.3811266136    -0.0800755311
 F      0.5741142379    -1.2850429220    -0.0271456554
 H      1.8567770014     0.9195587873    -0.4811669935
 F      1.0057642042     1.2294301214    -0.3374799195
          6
Energy: -16.846123274118327 Kcal/mole
 H      2.3018421135    -0.9725465028    -0.2214870611
 F      2.9852680398    -0.3781946696    -0.3648882527
 H      0.4199671787    -0.3527522119    -0.1980572300
 F      0.5621949538    -1.2517202380    -0.0861789570
 H      1.8538468078     0.9356638390    -0.4314380179
 F      0.9930790109     1.2518233930    -0.4347450073
          6
Energy: -16.866449839900156 Kcal/mole
 H      2.2905696842    -0.9640731897    -0.2424311770
 F      2.9858660161    -0.3786441593    -0.3637772157
 H      0.4115797995    -0.3531917780    -0.1903123219
 F      0.5626398849    -1.2516969201    -0.0865898064
 H      1.8537708806     0.9359802611    -0.4525751842
 F      0.9930830386     1.2518066076    -0.4336237294
