          6
Energy: -16.580626490440352 Kcal/mole
 H      1.1948431256    -0.5374373809    -1.4116159805
 F      1.7662766071     0.1678593944    -1.5416514954
 H     -0.0588072778    -0.4377466261     0.2050389012
 F     -0.1095495993    -1.1958400605    -0.3083893425
 H      1.1793584109     1.0391218481    -0.0756749023
 F      0.6875037731     1.0245342087     0.6981178453
          6
Energy: -16.84226146956621 Kcal/mole
 H      0.4884413731     0.1386055687    -1.5198429984
 F      0.6715125872     1.0322440140    -1.6135673800
 H      0.4435978383    -0.7874331615     0.2380714988
 F      0.2902364945    -1.2877297633    -0.5149707367
 H      0.8326677462     1.1860573488     0.1000377316
 F      0.8261872365     0.8170936822     0.9395094796
          6
Energy: -16.80413001570804 Kcal/mole
 H      1.2129170244    -0.6512185634    -1.6984779579
 F      1.5655500461     0.1794317234    -1.8614474430
 H      0.9784462947    -1.3876192439     0.1353728810
 F      0.6764483296    -1.8844159174    -0.5737669460
 H      1.8608348047     0.4203102573    -0.1463892025
 F      1.8124888140     0.1091240188     0.7148394490
          6
Energy: -16.737659986757023 Kcal/mole
 H      0.8504244944    -0.4058237983    -1.6968372912
 F      1.1001043016     0.4512388367    -1.9065815012
 H      0.7835825138    -1.1798829333     0.0742933642
 F      0.5357378328    -1.7057546187    -0.6348758573
 H      1.4191337865     0.6662806707    -0.2199644325
 F      1.4164986837     0.3957308973     0.6562118490
          6
Energy: -16.837644886639566 Kcal/mole
 H      1.0977295248    -0.3910098185    -1.6287659407
 F      1.6158310727     0.3410361098    -1.8199949784
 H      0.2387214547    -0.7112614055     0.1090605061
 F      0.1101571861    -1.3455965232    -0.5405387451
 H      1.3284578455     0.9327575526    -0.2210361772
 F      0.9270120157     0.8453945572     0.5987796270
          6
Energy: -16.856063033634143 Kcal/mole
 H      1.3235905056    -0.4496982727    -1.6501016638
 F      1.6894976289     0.3630409270    -1.8656381350
 H      0.2167250474    -0.7230833478    -0.0395887460
 F      0.3191518530    -1.4384083556    -0.6041309347
 H      1.0084790610     1.0382497686    -0.4290710426
 F      0.5228183492     0.9554450318     0.3443409102
          6
Energy: -16.82273778976827 Kcal/mole
 H      1.4947219664    -0.5612409108    -1.5285489844
 F      1.7869247078     0.2652356916    -1.7977013274
 H      0.1687901551    -0.8123266691    -0.1303898598
 F      0.4710710692    -1.5646207840    -0.5588391726
 H      0.7722204093     1.0409151701    -0.5660701816
 F      0.1603143857     0.9429758044     0.1098498573
          6
Energy: -16.845301694863565 Kcal/mole
 H      1.6936666674    -0.5982419766    -1.3905912337
 F      1.9508771453     0.2471092888    -1.6357707767
 H      0.2729570712    -0.8856089053    -0.0370274990
 F      0.6595899013    -1.6317361381    -0.4040400427
 H      0.7759060176     0.9633081891    -0.4999868816
 F      0.1326401758     0.8257065296     0.1388901332
          6
Energy: -16.852235944552774 Kcal/mole
 H      1.6927005609    -0.5858524584    -1.3474225424
 F      1.9988283180     0.2484449238    -1.5735257807
 H      0.2447761646    -0.9060428926    -0.0822965270
 F      0.6552085913    -1.6337884216    -0.4602127455
 H      0.7966320573     0.9568949482    -0.5291076508
 F      0.1017700225     0.8609560108     0.0615288473
          6
Energy: -16.87205953341521 Kcal/mole
 H      1.7040742820    -0.5892618016    -1.3449460438
 F      1.9982249684     0.2486257816    -1.5736571532
 H      0.2358639162    -0.8922296358    -0.0875048183
 F      0.6418186810    -1.6259516511    -0.4586405526
 H      0.7985933592     0.9477721038    -0.5192473006
 F      0.1058146683     0.8464962046     0.0729434438
