          6
Energy: -0.7593217921400424 Kcal/mole
 H      3.0860110584    -1.8705639908    -1.0727477897
 F      3.1611990154    -1.8705639908    -1.9866601329
 H     -0.3931440790    -1.4642934072     0.8240781427
 F      0.5238559210    -1.4642934072     0.8240781427
 H      0.5194967664     1.6282138991    -1.5122527566
 F      1.4161101364     1.4359290461    -1.5122527566
