          3
Energy: -0.0019496913298321175 Kcal/mole
 He     0.0391568063    -2.3090989056     0.6263755564
 He     2.7659423687     0.5831937449     3.2044872650
 He     2.9370645920    -7.4286289783    -7.4750031118
          3
Energy: -4.5342752332198005E-5 Kcal/mole
 He     4.2684756928    -3.5480406362    -0.1968014876
 He    -5.5134194325    -3.6999182368    -0.0673574585
 He     5.5588653675     6.2188324690     2.9911971098
          3
Energy: -9.882660787288998E-5 Kcal/mole
 He    -4.8117693021    -4.9272871117     0.3746063229
 He    -7.0454091426     0.9244240366    -5.8134612606
 He    -1.7462414583     6.5168707830    -1.2568881343
          3
Energy: -2.7892446537847202E-5 Kcal/mole
 He    -6.5123461484    -1.7325824874    -7.2527446800
 He     5.5527776499    -1.6247309824     5.8594579238
 He    -0.4729882440     4.5438285366    -0.4874412327
          3
Energy: -0.018483350816733617 Kcal/mole
 He     4.2044887321     0.7481393082     1.3209164833
 He    -4.2813991573    -5.3844868707    -6.5245702242
 He     5.1565906803     2.8415777507    -0.6483809983
          3
Energy: -0.003241302156761331 Kcal/mole
 He     7.0691652942    -5.8357046884     7.2936229422
 He     4.1504158749    -4.7585303650     4.2743373377
 He     1.6983392882     5.2887215993     6.0903519950
          3
Energy: -6.768883193853105E-4 Kcal/mole
 He     2.4422566717     1.6123780481    -1.5604715444
 He    -4.9104826768    -3.7669882135     5.5245016404
 He     6.7282023675     4.3445323430     0.9534869460
          3
Energy: -5.95194444083919E-4 Kcal/mole
 He     0.8350886374    -3.8944379451    -4.3910382201
 He    -3.5467141585    -4.3125182007    -0.4745247428
 He    -4.3246395657     3.7150962441     2.4665006859
          3
Energy: -1.5470923631688102E-4 Kcal/mole
 He    -1.8317352429     5.4288055019    -1.0575152455
 He     5.7409253186    -2.7495743436    -4.3452277624
 He     4.7010234842     4.8000033625     2.5413544224
          3
Energy: -0.059998891075629925 Kcal/mole
 He     0.4600070669     4.0856161400    -0.5736826430
 He     1.6015857621     1.4624606863    -0.4015744837
 He     3.3089697633     3.7633910108    -0.5285737761
