          10
Energy: -37.8823773716305 Kcal/mole
 H      0.8734385783    -1.0196212283     2.8057254187
 F      0.0164502691    -1.1373223104     2.5014122691
 H      0.4837189107     1.6505814060     0.3506479469
 F      1.2622242747     2.1105755250     0.1982543492
 H      2.5626729452     1.7768810202     1.1762381027
 F      3.1811012661     1.4715135364     1.7805444090
 H      2.7940204007     0.1536115073     2.7204203797
 F      2.4322681385    -0.5643781851     3.1614590428
 H     -0.5853112901    -0.0181147067     1.4219787511
 F     -0.7610231889     0.6636697138     0.8344548515
