          10
Energy: -37.53440938648242 Kcal/mole
 H      1.2047199940     0.0410431678     0.5521310228
 F      1.1629346635     0.3425696243     1.4171308969
 H      4.5271571145     0.1939466149     1.5230469759
 F      5.0303806870    -0.3553444010     0.9883186187
 H      4.4763087027    -0.7593717384    -0.5332894621
 F      3.9932424255    -0.9987763290    -1.2750585729
 H      2.3880965867    -0.6856478623    -1.2237033087
 F      1.5117272418    -0.4679835515    -1.0640536325
 H      2.5373250620     0.9183365801     2.0417390017
 F      3.3962968970     1.1370260420     2.2767524184
          10
Energy: -37.491914923481716 Kcal/mole
 H      0.9753256123     0.8358612511    -0.0429348792
 F      1.1140826431     1.4133076739     0.6557718656
 H      4.4003870041     0.2646342713     1.1126736758
 F      4.5948394295    -0.5783493340     0.8086080654
 H      3.4932460949    -1.4938234042    -0.0712493765
 F      2.8206431695    -1.9521071365    -0.4937068601
 H      1.5623810566    -0.9685351503    -1.0846282037
 F      0.9699313607    -0.2891287124    -1.2528520129
 H      2.6750623165     1.6591367228     1.1945323418
 F      3.5630683451     1.7081347333     1.4179903648
          10
Energy: -37.37189645915481 Kcal/mole
 H     -0.0148940983     0.1522929256     0.2472645732
 F      0.2331881734     0.8680438654     0.7640283282
 H      3.5295571912     0.4784653193     0.6878333024
 F      3.8283471214    -0.0968933658     0.0393150211
 H      2.9470479210    -1.4529800897    -0.4305269307
 F      2.3603262274    -2.1082028461    -0.6900067829
 H      0.7245102964    -1.6707539560    -0.8152476353
 F     -0.0657316127    -1.2199648549    -0.7003741770
 H      1.6891954980     1.1567696934     1.4529410272
 F      2.5494404113     1.2757810591     1.7473964297
          10
Energy: -37.62329010054589 Kcal/mole
 H      0.6767453896     0.0959340179     1.1854980897
 F      0.9023530916     0.9803968121     1.2733373203
 H      4.0220616683     0.2326732927    -0.3331455174
 F      4.3688378116    -0.6024206347    -0.4856363001
 H      3.1437550394    -1.7378871359    -0.6865345049
 F      2.3360792135    -2.1718094407    -0.7026650239
 H      1.1308138990    -1.8381255146     0.3457567873
 F      0.5089090807    -1.5118257555     0.9353768889
 H      2.2704895001     1.4541838845     0.4562437024
 F      3.0707599159     1.5903833633     0.0297393489
          10
Energy: -37.56359957339728 Kcal/mole
 H      0.7071240511     0.4190957824     0.0016138727
 F      0.8536925516     0.9434363133     0.7394984722
 H      4.1772370085     0.2111969751     0.5783979860
 F      4.4365417524    -0.6162134784     0.2799989391
 H      3.6344537066    -1.4470583546    -1.0254674152
 F      3.0097748034    -1.7211611179    -1.6382748426
 H      1.5657232537    -0.9667920905    -1.5475543325
 F      0.8019365130    -0.4836580790    -1.3923114848
 H      2.4426847472     1.4395942915     0.9222060765
 F      3.3467585764     1.5923259513     0.9367852190
          10
Energy: -37.48214016949936 Kcal/mole
 H      0.7700033369     0.8006388131    -0.5368179801
 F      0.9270329590     1.3414383661     0.1868991893
 H      4.1085625354     0.3108878674     0.1496945512
 F      4.2872911481    -0.5324475310    -0.1629242083
 H      3.5244943296    -1.2468805330    -1.5080275387
 F      2.9280862292    -1.5686542726    -2.1258042283
 H      1.4757139007    -0.8062531689    -1.9836077884
 F      0.7410614455    -0.2706840061    -1.8638562040
 H      2.5340503854     1.6720957603     0.4941262922
 F      3.4454997909     1.7249879810     0.5798665646
          10
Energy: -37.74863832060987 Kcal/mole
 H      0.7005501061     0.4944262009    -0.7230627251
 F      1.0015946582     1.3214023587    -0.4654358398
 H      4.3173609804     0.0882950127    -0.3899443725
 F      4.6141343481    -0.7502277068    -0.6128663704
 H      3.5178827798    -1.7217893654    -1.3570152849
 F      2.7945612768    -2.1132599473    -1.7625344420
 H      1.2847087751    -1.5345867282    -1.4439791390
 F      0.5244801822    -1.0791203933    -1.2084119418
 H      2.6160864586     1.5144136363    -0.1695641587
 F      3.5304419543     1.5370803300    -0.1037671340
          10
Energy: -37.590815389802714 Kcal/mole
 H      1.2123782652     0.6097388926    -1.3217057188
 F      1.2165611649     1.0496564380    -0.5171287761
 H      4.3157584506    -0.2461589254     0.0790208014
 F      4.6003275956    -1.0449871267    -0.2699532756
 H      3.7870066217    -1.7470585088    -1.5549955274
 F      3.2659418203    -2.0231343961    -2.2572508778
 H      2.0634785096    -0.9810774733    -2.6682910196
 F      1.4772976648    -0.2811167011    -2.7539410904
 H      2.7186048293     1.2065075111     0.1850298262
 F      3.5586521460     1.1586501656     0.5496106543
          10
Energy: -37.4886658193293 Kcal/mole
 H      0.6649848107     0.7905762963    -0.7677710695
 F      0.8463399537     1.4206984994    -0.1267208988
 H      3.9079090992    -0.1774599709     0.7540928946
 F      4.1248846801    -0.9965027600     0.4034085538
 H      3.3846021821    -1.5547852137    -0.9862832612
 F      2.8048527227    -1.7995718227    -1.6532608323
 H      1.2816000111    -1.1288060698    -1.7809996425
 F      0.5640143141    -0.5579077674    -1.7750923684
 H      2.3384250821     1.4185517195     0.6491895625
 F      3.1731686986     1.3265376033     1.0174632340
          10
Energy: -37.359005064518755 Kcal/mole
 H      1.0092610235     0.8090307569    -0.5897748573
 F      1.3383949582     1.5217131238    -0.1158089335
 H      3.5441415031    -0.9334062789     1.2603541804
 F      3.9100297207    -1.6861541647     0.8856737397
 H      2.9738457247    -2.4022330547    -0.3444077579
 F      2.3345426407    -2.6007765612    -0.9711142624
 H      1.1312603829    -1.4760929792    -1.3170504046
 F      0.5999252734    -0.7287166924    -1.3178794729
 H      2.2990881216     0.9258140614     1.1682334469
 F      2.8256482817     0.4643440925     1.7604064499
          10
Energy: -37.59919585865913 Kcal/mole
 H      2.0314584417     0.7668469363    -1.1847547675
 F      2.4293284241     1.2837566317    -0.5402449973
 H      3.1193074673    -1.3688149402     1.4758487398
 F      3.0205557542    -2.2430111067     1.2171632908
 H      2.4104089923    -2.6889054274    -0.2476273714
 F      2.1051395035    -2.7667759842    -1.1088101136
 H      1.5786666243    -1.3299684926    -1.8056468259
 F      1.3664006811    -0.4708005665    -2.0457772992
 H      2.8767775334     0.7540200498     0.9514042821
 F      3.1314663659     0.2492020968     1.6733332488
          10
Energy: -37.670817346903874 Kcal/mole
 H      1.1152853333     0.3461866220    -1.1616818396
 F      1.3307518528     1.0243479154    -0.5832698418
 H      3.7799400682    -1.0405733611     0.8203082214
 F      3.8933015987    -1.8984084817     0.5167343933
 H      3.3559234769    -2.4003837315    -0.9633648855
 F      2.9197128427    -2.5251055971    -1.7602674761
 H      1.6458894260    -1.5514715343    -2.0886195631
 F      0.9500172830    -0.9612862710    -2.1799010811
 H      2.5909305155     0.8063566411     0.5153452013
 F      3.2898403059     0.5386534860     1.0452028479
          10
Energy: -37.669580404450784 Kcal/mole
 H      0.2325338435     0.1907000824    -0.9144035192
 F      0.4893714691     0.9180673830    -0.4185605561
 H      3.1710073476    -1.0727572864     0.6511514939
 F      3.3760811925    -1.9280799522     0.3918122268
 H      2.4564827461    -2.6034293580    -0.8169461875
 F      1.8165756090    -2.8525779417    -1.4246737902
 H      0.5687531503    -1.8548636238    -1.7146187834
 F     -0.0394806024    -1.1751995926    -1.8094739711
 H      1.8657386127     0.7248981560     0.4451883158
 F      2.6009596472     0.4485875358     0.9184656886
          10
Energy: -37.57096490899718 Kcal/mole
 H     -0.0167559881    -0.1972408990     0.1991202300
 F      0.1333347474     0.1358515036     1.0401976477
 H      3.4806108743    -0.7504859649     0.4721190066
 F      3.8747411862    -1.3219624968    -0.1270177647
 H      2.8261783241    -1.8413647888    -1.2555137669
 F      2.1527161713    -2.0230020073    -1.8507831593
 H      0.7377419329    -1.2510943345    -1.6361900658
 F     -0.0243833482    -0.8225529515    -1.3597730999
 H      1.7152900442     0.2218496513     1.4791152351
 F      2.6306421713     0.2105592209     1.5328926436
          10
Energy: -37.53327495017882 Kcal/mole
 H      0.3979207123    -0.9720388787     1.3982487310
 F      0.6412428557    -0.2463894540     1.9033390664
 H      3.0140626310     0.5171433233    -0.5871664677
 F      3.2289779981    -0.0989681313    -1.2314544937
 H      2.5328733313    -1.6471082309    -1.2080135274
 F      2.0903838356    -2.4458227197    -1.1234723447
 H      0.7177852753    -2.4104932461    -0.2118907788
 F      0.0604721237    -2.1940700529     0.3897647890
 H      1.6907271477     0.8532635045     1.2450803146
 F      2.2882922206     1.3432269206     0.7513791554
          10
Energy: -37.58728702603659 Kcal/mole
 H      0.2168299716    -0.8235171480     1.0134074428
 F     -0.1520919153     0.0115220583     0.9268328193
 H      2.3767967800     0.4222555308    -1.5263417296
 F      2.8308380038    -0.2618329463    -1.9347025046
 H      2.6006837957    -1.8667064751    -1.5278667266
 F      2.3437275249    -2.6806592453    -1.1926901123
 H      1.5442711004    -2.4907872019     0.2136055170
 F      1.0641216464    -2.2017566783     0.9394201340
 H      0.8064871423     0.9955910263     0.0214904479
 F      1.3763031633     1.3753163848    -0.5884336081
          10
Energy: -37.589369193420396 Kcal/mole
 H      0.0723422829    -1.1742005051     0.6125217313
 F     -0.2854085485    -0.3483082018     0.4370074985
 H      2.2810329487     0.0078857760    -1.9322471851
 F      3.0176358738    -0.5263796278    -2.0456738535
 H      3.2665843102    -1.7646118588    -0.9087754571
 F      3.2681616511    -2.4100328977    -0.2573783473
 H      1.7701334252    -2.5951792144     0.3520075945
 F      0.9004514648    -2.6056921474     0.6425790419
 H      0.4127894768     0.5598775103    -0.7748773320
 F      0.9418797208     0.9176492350    -1.4328681425
          10
Energy: -37.685681551585304 Kcal/mole
 H      0.3986791561    -0.4100207452     1.2116345078
 F      0.1204147307     0.4075905410     0.9034629741
 H      2.7204416077     0.1929073687    -1.6087565234
 F      3.2547779957    -0.5282764777    -1.7965529132
 H      3.1148317732    -1.8732524018    -0.7997533390
 F      2.8943183551    -2.5503027791    -0.2219422807
 H      1.7736152718    -2.2159340576     0.9567480292
 F      1.1053298424    -1.8999942435     1.4993948930
 H      0.9307982125     1.0520940532    -0.3760673310
 F      1.4896364597     1.2701463250    -1.0696392596
          10
Energy: -37.704392945833234 Kcal/mole
 H     -0.2433864452    -0.7992901108     0.6980174294
 F     -0.5745398741     0.0098610070     0.4214295137
 H      2.5107627228     0.4808564461    -1.3144878868
 F      3.0992364251    -0.1919710964    -1.5191603076
 H      3.0101056356    -1.6449803628    -0.7302569090
 F      2.8024779652    -2.3733298170    -0.2132590144
 H      1.4270697273    -2.2984027558     0.7477940783
 F      0.6292540929    -2.1222824775     1.1641603365
 H      0.5425279440     1.0406240207    -0.3407845529
 F      1.2732053937     1.4571656778    -0.7061508246
          10
Energy: -37.651911101184396 Kcal/mole
 H      0.4537264940    -0.0596814915     1.1944614315
 F      0.2327159439     0.6966641320     0.7254362356
 H      2.7951996408     0.1037149261    -1.6830433109
 F      3.5247121350    -0.4394823384    -1.5662646632
 H      3.5628849351    -1.3768868119    -0.2160298854
 F      3.4749386032    -1.8423679295     0.5691336466
 H      2.0519984582    -1.6974842289     1.4176735634
 F      1.2438809481    -1.4682247941     1.7854713357
 H      0.8999889432     0.9732080652    -0.8442798770
 F      1.3713212276     0.9450835079    -1.6303739471
          10
Energy: -37.66210947754456 Kcal/mole
 H      0.9888708506     0.3570869658     1.3615964775
 F      0.5207911786     0.8697981217     0.7624990805
 H      2.9893557560     0.0133273876    -1.6962228243
 F      3.5756583394    -0.6916123398    -1.6821422889
 H      3.6340325682    -1.6805438935    -0.3571118758
 F      3.5253573274    -2.1169177615     0.4420480202
 H      2.5972090747    -1.2318202231     1.5550056345
 F      2.0572898252    -0.6966374701     2.0677976244
 H      1.3305500207     1.1906728409    -0.6529118471
 F      1.8757398846     1.2143406973    -1.3898628936
          10
Energy: -37.62573589611631 Kcal/mole
 H      1.1398796184     0.7126959707     1.5592100617
 F      0.8808407679     1.4055186135     1.0171910034
 H      2.5673083069    -0.4575833776    -1.5984687834
 F      2.9805338913    -1.2744677775    -1.5452382140
 H      3.1472576440    -1.9819539410    -0.0916971866
 F      3.1402729879    -2.2463128829     0.7863429972
 H      2.2397232098    -1.3027498223     1.8588706579
 F      1.6748565953    -0.7260693645     2.2939044007
 H      1.3247611201     1.2198632398    -0.6190023766
 F      1.6741587215     0.9587670785    -1.4256244137
          10
Energy: -37.61466582469831 Kcal/mole
 H      1.5650897422     1.0655390703     1.4547546779
 F      1.0823660495     1.5926138262     0.8802470294
 H      2.5667400301    -0.6303964645    -1.6328095622
 F      3.0199938426    -1.4272882877    -1.6124772328
 H      3.0139310449    -2.0596859377    -0.0703436229
 F      2.9682754514    -2.2424147500     0.8271053996
 H      2.7379323428    -0.9164099281     1.7978880232
 F      2.5821778495    -0.1035199964     2.1926531393
 H      1.4319568081     1.1263230888    -0.6447214873
 F      1.7261463830     0.7830996403    -1.4425555292
          10
Energy: -37.47385456153498 Kcal/mole
 H      1.5396555817     0.8225016482     1.6354156838
 F      1.1740087185     1.3893781133     1.0142535112
 H      2.1380116059    -0.9965392031    -1.5367562565
 F      2.6894342001    -1.7275495962    -1.4872999341
 H      3.5292950749    -1.8078252316    -0.0444113976
 F      3.8243177236    -1.7237571749     0.8197547893
 H      2.7613565511    -0.9878812387     1.9982463670
 F      2.2184984881    -0.4486664518     2.5036586116
 H      1.1197491229     0.8026622943    -0.5530030910
 F      1.2011535221     0.3422059803    -1.3418264595
          10
Energy: -37.70059726940778 Kcal/mole
 H      1.6763955883     0.8279156087     1.4609467072
 F      1.1715650068     1.2622614175     0.8305668199
 H      2.0190862998    -1.3533986891    -1.2848343861
 F      2.5246299931    -2.1016321273    -1.1252684240
 H      3.5055415005    -2.0107694241     0.2085594974
 F      3.9729356146    -1.8481029853     0.9805513185
 H      3.2055986039    -0.7799472353     1.9604090388
 F      2.6723816895    -0.1618127450     2.3781152444
 H      0.9962575492     0.5095246293    -0.6289658255
 F      1.0397981461    -0.0343136275    -1.3660093567
          10
Energy: -37.62066328569736 Kcal/mole
 H      1.2319381356     0.4132128621     1.8890607622
 F      0.6611748073     0.8315384878     1.3058610588
 H      2.1194903780    -1.0060330868    -1.2092777000
 F      2.9754141536    -1.3350141471    -1.2166906788
 H      3.6673141565    -1.6908652465     0.2799811691
 F      3.8774964910    -1.7997905056     1.1658974599
 H      2.9090581345    -1.0017595701     2.2750233538
 F      2.3269210281    -0.4718059427     2.7452940654
 H      0.6251252558     0.2156883760    -0.2233154192
 F      0.6526169408    -0.2838883793    -0.9917920114
          10
Energy: -37.56663958772219 Kcal/mole
 H      0.9276681388     0.4565556727     1.9571715482
 F      0.2596508945     0.7403328011     1.3967141432
 H      1.9427402043    -1.2969814497    -0.8995266511
 F      2.7810568406    -1.6651260649    -0.8486959555
 H      3.7654534741    -1.3273772033     0.4635756593
 F      4.1349460097    -1.1193337316     1.2766452627
 H      2.9968726258    -0.5576477437     2.3028935705
 F      2.2724077414    -0.1665362726     2.7067146305
 H      0.2859451136    -0.0323687250    -0.1107793497
 F      0.4586033307    -0.5858510792    -0.8212266903
          10
Energy: -37.62533846398554 Kcal/mole
 H      0.9563453723     0.7960997155     2.0166519319
 F      0.1842385449     0.7186870991     1.5280341529
 H      1.6257352858    -1.5592699314    -0.6143137917
 F      2.4965885002    -1.8367150940    -0.5399642066
 H      3.6435058559    -1.0617816397     0.4247946741
 F      4.1005584293    -0.5634857515     1.0442243739
 H      3.1587763922     0.2511819277     2.1848045925
 F      2.4987503518     0.6501142920     2.6808969172
 H     -0.0382732567    -0.3347164575     0.2487556862
 F      0.0498855805    -0.8976283496    -0.4697477732
          10
Energy: -37.69285025228592 Kcal/mole
 H      0.8421933639     0.5760203630     1.9904446511
 F      0.2258506899     0.8131892595     1.3542358624
 H      2.0298414685    -1.1507017189    -1.0729681352
 F      2.7945021064    -1.6467522101    -0.9723847421
 H      3.5399443033    -1.5179828307     0.4553563991
 F      3.7743201660    -1.3357915058     1.3229757142
 H      2.7923136788    -0.4961896942     2.3904145589
 F      2.1348306869    -0.0360845958     2.8341581940
 H      0.4589343638     0.2039825773    -0.1739901054
 F      0.6955137241    -0.1681018334    -0.9780251778
          10
Energy: -37.74150847769775 Kcal/mole
 H      0.7941861050     0.3016403873     2.1626842700
 F      0.1212062146     0.3924631432     1.5464551777
 H      1.9355396765    -1.7097583001    -0.7136237162
 F      2.6282639269    -2.2591327647    -0.4702930553
 H      3.4595190421    -1.9849149458     0.9450224907
 F      3.7353733995    -1.7076373208     1.7744261875
 H      2.7947966617    -0.6569160039     2.6784451755
 F      2.1835496725    -0.0794148270     3.0441752794
 H      0.4428933536    -0.1827829635     0.0077610585
 F      0.7648297412    -0.5444016237    -0.7710058559
          10
Energy: -37.67810346117162 Kcal/mole
 H      0.5783539302     0.4855065526     1.9896414304
 F      0.0778566968     0.6904564467     1.2491098238
 H      2.0787380378    -1.5726076237    -0.7108408678
 F      2.8810799302    -1.9855617025    -0.5477291993
 H      3.3307452951    -1.8631903093     1.0392470310
 F      3.3855409329    -1.6568309347     1.9310442313
 H      2.3578760713    -0.6026301544     2.7343185880
 F      1.7395481519    -0.0029351792     3.0488428650
 H      0.3867784101    -0.1638660842    -0.1392740160
 F      0.6594395327    -0.7085862870    -0.8247116958
          10
Energy: -37.74598076818344 Kcal/mole
 H      0.8512144621     0.4934060656     1.7784547356
 F      0.3193760021     0.6776719375     1.0545190058
 H      2.1125404643    -1.7519210534    -0.7488257212
 F      2.9258933021    -2.1124708247    -0.5266770691
 H      3.2674385961    -2.0031385855     1.0697669097
 F      3.3765013574    -1.8826084876     1.9722450588
 H      2.4678817807    -0.7179183360     2.7476366016
 F      1.8690754949    -0.0651401833     2.9847035024
 H      0.4280772657    -0.3803771220    -0.2432346879
 F      0.6335563393    -1.0034824839    -0.8838648919
          10
Energy: -37.71610937105632 Kcal/mole
 H      0.8245355024     0.6417545095     2.0415256752
 F      0.4361221421     0.9989608973     1.2915739047
 H      1.7847221976    -1.6516164311    -0.5427648870
 F      2.4994292565    -2.1427869984    -0.2447140630
 H      2.7580876374    -2.3403017398     1.3709446646
 F      2.8381850909    -2.3237977274     2.2842907193
 H      2.0626487755    -1.0303252060     3.0040102955
 F      1.5858866378    -0.2889678004     3.2569451908
 H      0.3606788579    -0.0218367558    -0.0161808631
 F      0.4423534919    -0.6662531394    -0.6634410725
          10
Energy: -37.67481605634649 Kcal/mole
 H      0.5839525344     0.3146557895     2.3410500895
 F      0.0493868280     0.4552245835     1.6093610027
 H      1.5555436756    -1.8731052898    -0.3265132556
 F      2.2158904242    -2.3928778442     0.0404576742
 H      3.0220257948    -2.0046817429     1.4477191798
 F      3.3738752718    -1.6534810636     2.2182702997
 H      2.4227239129    -0.6137383672     3.0607664072
 F      1.7794658411    -0.0672283999     3.4191445715
 H      0.1753380345    -0.2865281719     0.1389014862
 F      0.3753866553    -0.7480355132    -0.6278321855
          10
Energy: -37.73124905526578 Kcal/mole
 H      0.6439128262     0.6266080998     2.3555317770
 F      0.0087213389     0.7003563969     1.6982784292
 H      1.7287136626    -1.7600964204    -0.0611043642
 F      2.4797221236    -2.1937544116     0.2369158334
 H      3.3258145331    -1.5417419469     1.5412108924
 F      3.6703580504    -1.1002347967     2.2673308557
 H      2.5746888871    -0.2007244445     3.1518609303
 F      1.8460952288     0.2919400980     3.4113256286
 H      0.1387696717    -0.2606966885     0.3594924221
 F      0.3617459978    -0.8408947086    -0.3147039999
          10
Energy: -37.64102229343436 Kcal/mole
 H      0.6439356100     0.6149488080     2.4324615809
 F      0.1601453189     0.7863673170     1.6725591864
 H      1.7617608103    -1.9387423973     0.0845037596
 F      2.4353183388    -2.4567332519     0.4293149113
 H      3.0940174145    -1.9853764556     1.8665208481
 F      3.3679329975    -1.5916610508     2.6480881411
 H      2.2544378895    -0.5022073221     3.4413446024
 F      1.6062169727     0.1055996233     3.6677719862
 H      0.3691378308    -0.2048171057     0.3915287679
 F      0.5886293641    -0.8150938152    -0.2567572835
          10
Energy: -37.777313444093465 Kcal/mole
 H      0.2142813541     0.2693885039     2.7010103819
 F     -0.3709336149     0.2910217480     1.9953585961
 H      1.6489902883    -1.9948827432     0.2043389589
 F      2.3881380453    -2.4539580962     0.4938202427
 H      2.8679303877    -2.0729750041     2.0191654409
 F      3.0299062294    -1.7943979521     2.8776802356
 H      2.0898239670    -0.5915549426     3.5248928330
 F      1.4726626960     0.0490305014     3.7477184476
 H     -0.0245693763    -0.5544811213     0.5913765366
 F      0.3110838859    -1.1039939955    -0.0615105046
          10
Energy: -37.81735708814017 Kcal/mole
 H      0.1337120260     0.3021763501     2.7367980840
 F     -0.5597324712     0.2548027999     2.1386513828
 H      1.2824616128    -2.1241233541     0.2988013107
 F      2.0296437514    -2.5780654912     0.5754678752
 H      2.9132150680    -1.8486371312     1.8153234374
 F      3.2321486286    -1.3316256350     2.5022510148
 H      2.1926280873    -0.2928718430     3.3003197950
 F      1.5119111512     0.2286212385     3.6252173465
 H     -0.2969171031    -0.5993196747     0.7135355623
 F     -0.0085097969    -1.1331462696     0.0259750977
          10
Energy: -37.79794485096198 Kcal/mole
 H      0.3865292151     0.4237239839     2.6332769949
 F     -0.3493734561     0.3759828615     2.0882475978
 H      1.4258038712    -1.7330670680     0.0331275539
 F      2.1458660795    -2.2343689073     0.2997656647
 H      2.7840938476    -2.1151980541     1.8534635929
 F      3.0111774899    -1.8792424837     2.7099955469
 H      2.3330565660    -0.4747644091     3.2665536140
 F      1.8599157093     0.2956111527     3.4200079185
 H     -0.1325270574    -0.3260824777     0.6061039138
 F      0.1210008061    -0.7618626302    -0.1598649376
          10
Energy: -37.79205941670983 Kcal/mole
 H      0.4452384987     0.3725013707     2.6411198176
 F     -0.2559158900     0.4070948216     2.0511411601
 H      1.4826413638    -1.6338866207    -0.0974295322
 F      2.3083679163    -1.9965395896     0.0685448171
 H      3.0664169078    -1.7685011869     1.5186105106
 F      3.3832896638    -1.5467756941     2.3500661392
 H      2.4716572105    -0.4811604146     3.1940694056
 F      1.8246135761     0.0716545974     3.5355647904
 H     -0.1604939057    -0.3399149876     0.5825106113
 F      0.0391229144    -0.8297844121    -0.1665354969
          10
Energy: -37.729857289621265 Kcal/mole
 H      0.3058903253     0.1901475604     2.8129512857
 F     -0.3678431155     0.2922341536     2.1993141141
 H      1.1902791728    -1.9210383129     0.1012187697
 F      1.9201856147    -2.4455109388     0.2830264998
 H      2.9759095020    -1.8070543624     1.4174376188
 F      3.3826694172    -1.3578908761     2.1056872349
 H      2.3355783215    -0.6340061461     3.1841065155
 F      1.6711977916    -0.2324303436     3.6721888716
 H     -0.2508141406    -0.3905754848     0.7203862594
 F     -0.0656185119    -0.8769693800    -0.0346055007
          10
Energy: -37.779731896439046 Kcal/mole
 H      0.3087605754     0.1473828119     2.9043300248
 F     -0.4471921512     0.1346157717     2.3854259124
 H      1.1658604382    -1.8799390688     0.0305837861
 F      2.0571628163    -2.0946971386     0.0119278955
 H      3.0359371832    -1.5419101806     1.2064667696
 F      3.4676564742    -1.1449759515     1.9114140524
 H      2.5091679317    -0.3429711885     3.0431828416
 F      1.8414604730     0.0378579524     3.5432077560
 H     -0.5092654410    -0.7696174745     0.9687785981
 F     -0.3701817734    -1.3370398382     0.2619712732
          10
Energy: -37.78821126214714 Kcal/mole
 H      0.4380911768     0.1209108808     2.8274512750
 F     -0.3581803576    -0.0020708108     2.3895972502
 H      1.4176283980    -1.5080889205    -0.2237186199
 F      2.3311820742    -1.5031438054    -0.3029917330
 H      3.3104587726    -1.1780010143     1.0067009934
 F      3.6885586308    -0.9510825581     1.8107143711
 H      2.6878979489    -0.1272147229     2.8567634951
 F      2.0282280186     0.2962853469     3.3325494491
 H     -0.3626742238    -0.8559022442     0.9596690969
 F     -0.2109604665    -1.3438484008     0.1982359192
          10
Energy: -37.782083768834866 Kcal/mole
 H      0.4009418175     0.6525847399     2.4679809720
 F     -0.3882978760     0.5789352325     2.0069327573
 H      1.2525682452    -1.8972206793     0.0353136939
 F      2.1416297143    -2.1171801637    -0.0102552579
 H      3.0933560110    -1.5724145601     1.2250463947
 F      3.5062186836    -1.1968715145     1.9526457586
 H      2.5938761869    -0.0522125279     2.7959652332
 F      1.9419762450     0.5030578441     3.1239748058
 H     -0.4413287364    -0.6658174969     0.8860923956
 F     -0.2835995484    -1.3467744889     0.2925369404
          10
Energy: -37.746677030404385 Kcal/mole
 H      0.3805914702     0.4641191516     2.6274717700
 F     -0.4212697913     0.2572254726     2.2336411937
 H      1.2448065058    -1.9132497720     0.0560499580
 F      2.1498462995    -1.9969254759    -0.0655656182
 H      3.0588864439    -1.4604165945     1.1939752886
 F      3.4222807808    -1.1162324121     1.9623311987
 H      2.5633586733    -0.0124594881     2.8746100460
 F      1.9352870072     0.5436844531     3.2449057373
 H     -0.5062227042    -0.8919471680     1.0377017830
 F     -0.3510423658    -1.5455065481     0.4134676929
          10
Energy: -37.754454637071206 Kcal/mole
 H      0.2966680595     0.6057247422     2.5562467750
 F     -0.4838735279     0.4477779011     2.1016077691
 H      1.1845568459    -2.0585132940     0.1779241294
 F      2.0843225133    -2.2199474283     0.1054688745
 H      3.0963129720    -1.4484513258     1.1768874639
 F      3.5019383801    -0.9414130259     1.8243974567
 H      2.5513724343     0.1194233416     2.6724535439
 F      1.9051801321     0.6082302710     3.1018627828
 H     -0.4830306336    -0.7984891880     1.0185029085
 F     -0.3398910881    -1.4942578501     0.4385839147
          10
Energy: -37.77694120113611 Kcal/mole
 H      0.1448640684     0.0638719085     2.9538948492
 F     -0.6808107074    -0.1079101004     2.5938377619
 H      1.0750063237    -1.8912218997    -0.0056345781
 F      1.9858713597    -1.9445103973    -0.0971453549
 H      2.9797445173    -1.4051655738     1.1342376897
 F      3.3974276592    -1.0428889526     1.8658013866
 H      2.4306310909    -0.1796035519     2.9024626359
 F      1.7638737087     0.1942949391     3.4089441378
 H     -0.6742677159    -1.1088766010     1.2600353753
 F     -0.4957900654    -1.6272980084     0.5250020614
          10
Energy: -37.78187078425012 Kcal/mole
 H      0.1554876498     0.1217005818     2.9641312809
 F     -0.6577255443     0.0255359697     2.5514259763
 H      1.0414050577    -1.6554494884     0.0041187803
 F      1.9297000871    -1.5630189785    -0.2039137688
 H      2.9894059684    -1.0974285818     1.0178685158
 F      3.3956942020    -0.8426940394     1.7994881062
 H      2.4093491756    -0.1957398480     2.9424096774
 F      1.7342129687     0.1287374879     3.4713657820
 H     -0.6568645460    -1.0186201266     1.2660332976
 F     -0.4814249287    -1.6209142879     0.5971897554
          10
Energy: -37.80506183987973 Kcal/mole
 H      0.2615768123     0.3571783074     2.9101447799
 F     -0.5543548125     0.1634527014     2.5391798580
 H      1.1475266572    -1.6101209695     0.1454916630
 F      2.0442690482    -1.5562505262    -0.0384650157
 H      3.0305593666    -1.1194698550     1.2172759460
 F      3.4315532553    -0.8238139150     1.9871333785
 H      2.4914692663     0.0897667462     2.9704608817
 F      1.8410118197     0.5428286980     3.4314695346
 H     -0.5704920040    -0.9760154958     1.3495738801
 F     -0.3959233884    -1.5975180453     0.6983063625
          10
Energy: -37.81014854831142 Kcal/mole
 H      0.2687087813     0.2372803701     3.1355194273
 F     -0.5410109992     0.0118212813     2.7688982654
 H      1.1757890550    -1.7559500258     0.1465343019
 F      2.0711432996    -1.9232344329     0.0404885385
 H      3.0130897484    -1.2623748863     1.2583118486
 F      3.3766154974    -0.8697359045     2.0030082026
 H      2.4790473059     0.0498717292     3.0629481892
 F      1.8440988592     0.4986435605     3.5490894376
 H     -0.5182766152    -0.8247324363     1.3216131443
 F     -0.3590588464    -1.2670247695     0.5342655756
          10
Energy: -37.7908002356686 Kcal/mole
 H      0.3319767440     0.2964021501     3.0877485437
 F     -0.4662135329     0.1891922055     2.6492427746
 H      1.2082561406    -1.7253074083     0.1211366628
 F      2.1129947328    -1.8650659093     0.0681778002
 H      3.0486049148    -1.3234609772     1.3573827080
 F      3.4246003270    -0.9938320823     2.1260576989
 H      2.5191137207    -0.1088362297     3.1548516748
 F      1.8883826272     0.3565342429     3.6307693262
 H     -0.5123985816    -0.7522175338     1.2607105747
 F     -0.3725841007    -1.2678647451     0.5154261562
          10
Energy: -37.840108018256586 Kcal/mole
 H      0.4315692270     0.5504713438     2.9386212076
 F     -0.3941939491     0.3980852206     2.5701342385
 H      1.2380329445    -1.5184114494     0.1227804244
 F      2.1256064353    -1.7469501149     0.0932443989
 H      3.1125941941    -1.3015319725     1.3382639954
 F      3.5164339584    -0.9969772220     2.1031488552
 H      2.6325728116     0.0689838522     3.0363987501
 F      2.0130999343     0.6096154507     3.4424280950
 H     -0.4571950651    -0.4618949236     1.1429516370
 F     -0.3138175245    -0.9754426452     0.3968949244
          10
Energy: -37.82016110809016 Kcal/mole
 H      0.4648196219     0.4586849551     2.9961903657
 F     -0.3392492271     0.3711114853     2.5641103114
 H      1.2329631448    -1.4666369298     0.0637202363
 F      2.1248762495    -1.6773669564     0.0949110939
 H      3.1554427279    -1.2984385522     1.3698797336
 F      3.5792982262    -1.0077255343     2.1293015253
 H      2.6781741027    -0.0364592974     3.1337713978
 F      2.0361310970     0.4541184905     3.5673647706
 H     -0.4229557811    -0.4474540453     1.1255135101
 F     -0.3253853336    -0.9239360806     0.3481243683
          10
Energy: -37.82124989327045 Kcal/mole
 H      0.4031073182     0.3604321280     3.0883243395
 F     -0.3670005061     0.4004562932     2.5921177242
 H      1.3077225735    -1.4318691502     0.0659264667
 F      2.1875240071    -1.6903432269     0.0604868863
 H      3.1699680848    -1.2237880754     1.3360110914
 F      3.5646785661    -0.8682930252     2.0834841044
 H      2.5847050911    -0.2127129729     3.2419812105
 F      1.9238840987     0.1389515924     3.7716383161
 H     -0.3738343671    -0.3725522815     1.0952165647
 F     -0.2314653916    -0.8560696622     0.3291675993
          10
Energy: -37.81721672271897 Kcal/mole
 H      0.3765247192     0.3705336803     3.0423401133
 F     -0.3726304030     0.4005544471     2.5143681855
 H      1.2841615139    -1.4085234688     0.0251710938
 F      2.1660378520    -1.6582417821     0.0538745461
 H      3.1684194798    -1.2180405617     1.3273511904
 F      3.5596476521    -0.8827362642     2.0859028006
 H      2.5651778945    -0.2058378598     3.2092570170
 F      1.8949153264     0.1488691640     3.7248343798
 H     -0.4196901277    -0.4075096825     1.0380392017
 F     -0.2494389710    -0.8435169683     0.2494954867
          10
Energy: -37.82255737502118 Kcal/mole
 H      0.3852480058     0.3325228477     3.0193355562
 F     -0.3774902559     0.3810414394     2.5126154258
 H      1.2982507922    -1.4411418555     0.0393115126
 F      2.1856933417    -1.6712537267     0.0197347895
 H      3.1785710270    -1.2735250324     1.3084419606
 F      3.5652321782    -0.9750118810     2.0845038477
 H      2.5716793981    -0.2632803774     3.1881157412
 F      1.8965659296     0.1076042044     3.6856651675
 H     -0.4228301708    -0.4297838488     1.0245638587
 F     -0.2614312427    -0.9113174878     0.2610425817
          10
Energy: -37.855434107488804 Kcal/mole
 H      0.3935251251     0.3643257525     2.9558005734
 F     -0.3788472437     0.3620847626     2.4615082489
 H      1.2365825712    -1.5693901836     0.0816919542
 F      2.0880694925    -1.9024042402     0.1521239137
 H      3.1062845744    -1.3210906625     1.3462502266
 F      3.5228430920    -0.8999542842     2.0462589068
 H      2.5552716407    -0.1475176090     3.1677707199
 F      1.8857105040     0.2388278223     3.6610395026
 H     -0.4010819402    -0.3902117821     0.9742355727
 F     -0.2460587609    -0.8483876207     0.1951773497
          10
Energy: -37.84752407266899 Kcal/mole
 H      0.3703456158     0.4380255229     2.9524415060
 F     -0.3725987777     0.4902825492     2.4174725056
 H      1.2672369043    -1.5147705497     0.0696554670
 F      2.1195923018    -1.8478374819     0.1283555087
 H      3.1154313626    -1.2481132134     1.2964271578
 F      3.5179920304    -0.8352336076     2.0094238898
 H      2.5237003411    -0.1456595591     3.1644687059
 F      1.8377381022     0.1978629403     3.6668003684
 H     -0.3695452293    -0.2902701163     0.9413206145
 F     -0.2153484079    -0.7786661366     0.1806750547
          10
Energy: -37.867841715435276 Kcal/mole
 H      0.3790736980     0.4657370505     2.9873816670
 F     -0.3712360846     0.4856831021     2.4605739364
 H      1.2398261230    -1.5119332991     0.0602392660
 F      2.1083702823    -1.8029642114     0.1029130447
 H      3.1047987420    -1.2172902903     1.2997359999
 F      3.5096362551    -0.8223471899     2.0215500587
 H      2.5285914179    -0.1306084201     3.1736207111
 F      1.8597779658     0.2237333082     3.6913267144
 H     -0.4129005845    -0.3681734250     1.0301251563
 F     -0.2707520568    -0.8625340201     0.2709872254
          10
Energy: -37.84136137914436 Kcal/mole
 H      0.4006088527     0.4317592291     2.9858113123
 F     -0.3526797551     0.4737598662     2.4645808261
 H      1.2750059275    -1.5454565642     0.0113195191
 F      2.1430839753    -1.8373442521     0.0574831473
 H      3.1013038283    -1.2199622435     1.2785666347
 F      3.4838183438    -0.8173895081     2.0082972961
 H      2.5210161316    -0.1826123448     3.1830722740
 F      1.8617007824     0.1713046069     3.7131053500
 H     -0.3747347125    -0.3408264837     1.0217159832
 F     -0.2267215301    -0.8293762779     0.2599416095
          10
Energy: -37.86514995627459 Kcal/mole
 H      0.3892466040     0.4077096669     3.0067206196
 F     -0.3548687628     0.4573834542     2.4731347917
 H      1.2865494325    -1.5202461095     0.0363140058
 F      2.1471401466    -1.8365288374     0.0517366739
 H      3.1130071652    -1.2475695545     1.2733778813
 F      3.4925745725    -0.8499898222     2.0073723907
 H      2.5264613846    -0.1728662648     3.1912516335
 F      1.8669406880     0.1721907345     3.7268420723
 H     -0.3636378377    -0.3342391253     1.0053816527
 F     -0.2083341133    -0.8126840511     0.2386612303
          10
Energy: -37.857192891496794 Kcal/mole
 H      0.3942262525     0.4201072610     3.0007186842
 F     -0.3551329216     0.4567257905     2.4734531805
 H      1.2986365264    -1.4924524061     0.0024179348
 F      2.1464989542    -1.8380032292     0.0535347821
 H      3.1071892299    -1.2565701483     1.2794713609
 F      3.4875186650    -0.8605010619     2.0138879998
 H      2.5387371796    -0.1763184484     3.2090637735
 F      1.8662894855     0.1723738648     3.7258971794
 H     -0.3399422565    -0.2952608353     0.9779421574
 F     -0.1722484876    -0.7400827670     0.1937857642
          10
Energy: -37.87237060602803 Kcal/mole
 H      0.3939794856     0.4058014831     2.9998707129
 F     -0.3551198312     0.4574846790     2.4734981634
 H      1.2809791821    -1.5021693718     0.0167178938
 F      2.1312008921    -1.8433211633     0.0570601673
 H      3.0919728941    -1.2637328386     1.2860480998
 F      3.4802706965    -0.8769241910     2.0212303131
 H      2.5257081564    -0.1830204862     3.1970004371
 F      1.8669806451     0.1727293925     3.7265371116
 H     -0.3436671313    -0.2826091109     0.9875979686
 F     -0.1823730033    -0.7359697236     0.2069973287
          10
Energy: -37.87417121854725 Kcal/mole
 H      0.3921331902     0.3986000409     2.9962954694
 F     -0.3555551801     0.4430694563     2.4672646840
 H      1.2798348781    -1.5064856375     0.0060732052
 F      2.1312615947    -1.8430921954     0.0576248434
 H      3.0919625783    -1.2790430694     1.2901930378
 F      3.4773793891    -0.8957912058     2.0287462796
 H      2.5200208841    -0.1945896543     3.1978639531
 F      1.8672823417     0.1733431101     3.7264913040
 H     -0.3458599300    -0.2959264091     0.9810811829
 F     -0.1874275044    -0.7452758100     0.1975805240
          10
Energy: -37.87644224183899 Kcal/mole
 H      0.3924939531     0.3989671665     2.9958159644
 F     -0.3555743177     0.4430499811     2.4672901206
 H      1.2815872149    -1.5018340491     0.0077865105
 F      2.1311686373    -1.8433389514     0.0575339566
 H      3.0889131777    -1.2794443409     1.2920016840
 F      3.4775411527    -0.8957699192     2.0286503351
 H      2.5234305644    -0.1997281955     3.1900695120
 F      1.8684948979     0.1676346257     3.7163705954
 H     -0.3483043128    -0.2965636621     0.9809480759
 F     -0.1872978356    -0.7452420052     0.1975875850
