          10
Energy: -37.88327217654023 Kcal/mole
 H      0.8549277026    -1.1142438078     2.4212029925
 F     -0.0525719488    -1.0798862175     2.2941087810
 H      0.4366851035     1.8366871818     0.3277440548
 F      1.2133558283     2.3107895370     0.2141723061
 H      2.5873865111     1.7386104638     0.9465527364
 F      3.2469086078     1.2969786387     1.4057704791
 H      2.8692006264    -0.1508594714     2.1292234283
 F      2.5042761611    -0.9165521612     2.4776970134
 H     -0.6358341033     0.0911082625     1.2702763855
 F     -0.7987044269     0.7917568120     0.7015463373
