          10
Energy: -37.1469403171435 Kcal/mole
 H      3.7299176012    -0.6339551054    -2.3515805883
 F      4.1711992609    -0.9054813200    -1.5949875593
 H      4.7090088565    -4.0013053102    -2.5083892692
 F      4.2574671023    -4.4159852906    -3.1903273589
 H      3.5116481586    -3.4638095509    -4.3368570884
 F      3.2240880738    -2.8315555203    -4.9355665660
 H      3.0626660014    -1.3389815821    -4.2584615200
 F      2.9525704700    -0.5762395959    -3.7614779825
 H      5.1645440730    -2.2184208390    -1.3760428438
 F      5.5866897490    -3.0306362289    -1.4307071707
          10
Energy: -36.10828359605921 Kcal/mole
 H      3.0362670284    -2.0268152731    -1.3571703911
 F      3.2438145538    -1.7595309392    -0.5048957232
 H      5.2282967836    -4.6588343907    -1.0043267190
 F      5.0476330400    -5.3517464831    -1.5771464497
 H      3.9264867543    -5.1755027640    -2.9579670983
 F      3.3066306307    -4.8952384256    -3.5728811464
 H      3.0964493527    -3.1902788711    -3.3256133408
 F      2.8888176657    -2.3735587240    -2.9640247847
 H      4.4276867230    -2.7578894053    -0.0637523962
 F      5.1770897638    -3.2831843632    -0.0058793489
          10
Energy: -36.994677180485326 Kcal/mole
 H      3.0806374879    -2.1945391352    -1.5153244209
 F      2.3542855953    -2.4488426351    -1.0166946403
 H      4.5339183649    -5.1447477074     0.2732228211
 F      5.2860968794    -5.4317533663    -0.1658036407
 H      6.0013059545    -4.4219394199    -1.2585981855
 F      6.2681024203    -3.8322581389    -1.9082016281
 H      5.1947840663    -2.6219356957    -2.1003773726
 F      4.5798904078    -1.9481589761    -2.1942907409
 H      2.8774053354    -3.4562774863     0.2355237808
 F      3.1720531927    -4.1348828450     0.7773414690
          10
Energy: -37.20058813286957 Kcal/mole
 H      3.0827354035    -3.4152463851    -1.1778956835
 F      2.3260682992    -3.6909086370    -0.7393136317
 H      3.8650889350    -6.6311132366     0.0380008229
 F      4.7754707903    -6.7187026652     0.1044987145
 H      5.7025180193    -5.5616189120    -0.6387631789
 F      6.0919415543    -4.8405754684    -1.0502661107
 H      5.0599447525    -3.7320446228    -1.7306674325
 F      4.3805672504    -3.1718105504    -1.9865443438
 H      2.2191990744    -5.3255945022    -0.4937123798
 F      2.3447874535    -6.2273699814    -0.3845448744
          10
Energy: -37.460357848057726 Kcal/mole
 H      4.6319913428    -2.6927327097     1.9060148567
 F      4.0993205602    -2.7978265125     2.6450047958
 H      5.4612138930    -6.0272247103     2.9731563607
 F      6.1226614886    -6.4682619270     2.5161418622
 H      6.6915710835    -5.6221279103     1.1460167614
 F      6.9582205450    -5.0271837725     0.5011690758
 H      6.1669925352    -3.5423118224     0.5403932464
 F      5.7075682943    -2.7630695424     0.6907256644
 H      4.2474050719    -4.2341719518     3.4268781521
 F      4.4149790179    -5.0670894623     3.7719236467
          10
Energy: -37.47882804082414 Kcal/mole
 H      4.5658585793    -1.6787906096     0.4419308870
 F      4.7493387524    -1.1321147347     1.1549312473
 H      6.8350188854    -3.7311973259     2.6678710499
 F      7.1481158199    -4.5008569055     2.2799490977
 H      6.6062985352    -4.8699182197     0.7837364916
 F      6.2968875037    -4.9059969321    -0.0787321397
 H      5.1526984728    -3.7762258173    -0.5200644217
 F      4.5931275985    -3.0553180435    -0.6098498235
 H      5.6440060137    -1.8010510908     2.3907265762
 F      6.1101012564    -2.3014284791     3.0016821343
          10
Energy: -37.053092396600505 Kcal/mole
 H      5.3153835871    -3.7406844207    -0.9428078688
 F      6.1612036852    -3.3888636962    -0.9015823978
 H      6.8453295021    -3.7216132929     2.4073888586
 F      6.4576593483    -4.3412357886     2.9611657222
 H      5.2245155887    -5.3139209741     2.2971515736
 F      4.5847667343    -5.7641510436     1.8187131890
 H      4.1151648533    -5.0035972917     0.3487394075
 F      3.9754456635    -4.5657721709    -0.4447823071
 H      6.9703119523    -2.9367646904     0.4645863615
 F      7.4033279537    -2.7517994323     1.2514624609
          10
Energy: -37.15417519972996 Kcal/mole
 H      6.1789790692    -1.6540179173     0.0687753853
 F      6.7153994908    -0.9390203394     0.2735205805
 H      5.3135202029    -1.0254992886     3.6232748350
 F      4.7661422760    -1.6253541689     4.0492331989
 H      4.1079819011    -2.6896618001     3.0227719316
 F      3.9239467603    -3.2842470091     2.3493563867
 H      4.7042738451    -3.1167264107     0.9307217847
 F      5.0798090516    -2.9268525099     0.1159762965
 H      6.5444976207    -0.3987946152     1.8279243239
 F      6.4497446409    -0.2090079909     2.7200520670
          10
Energy: -36.52739936038242 Kcal/mole
 H      6.4715216045    -1.1593198855    -0.6131139418
 F      6.2813913782    -0.3642342024    -1.0285393307
 H      4.9752918040     0.3083238958     2.2638936582
 F      4.9763278351    -0.2775468003     2.9693321418
 H      6.0035308738    -1.5306620064     2.8868640646
 F      6.4402538637    -2.3233979526     2.7394471399
 H      6.5266047488    -2.5160418581     1.1262768182
 F      6.7153387867    -2.5104110930     0.2289269659
 H      5.5903057562     0.7615791347     0.0653564394
 F      5.1933298585     1.0701670143     0.8322153946
          10
Energy: -37.43517767319864 Kcal/mole
 H      4.8357357347    -1.5917493871    -1.1609765212
 F      4.7598037649    -0.7490078359    -1.5144026291
 H      2.2820646463    -0.4621192095     1.0240430619
 F      2.0382762485    -0.9970590344     1.7278154690
 H      2.6761354539    -2.5163709060     1.7556985476
 F      3.1097766008    -3.3142966800     1.6285812195
 H      4.0659428844    -3.3388660107     0.2710899487
 F      4.6300074945    -3.1575321482    -0.4287944318
 H      3.5313621274     0.0635478215    -0.7708755010
 F      2.7945012217     0.3434589334    -0.3022874357
          10
Energy: -37.23821514799994 Kcal/mole
 H      3.2044550547    -1.8017322544    -2.2042129283
 F      3.9524019691    -1.2736664329    -2.1531159483
 H      2.5647112342     0.6951851437     0.5915919529
 F      1.8985103692     0.5111267716     1.1942427001
 H      0.8496110131    -0.5727055750     0.3692752718
 F      0.4407992407    -1.1551229923    -0.2091293329
 H      1.1997398040    -2.0847278824    -1.3064503699
 F      1.7595833891    -2.5355603802    -1.8758484900
 H      3.9978020771     0.0319238759    -1.1314628479
 F      3.8351679288     0.6960274887    -0.5203936821
          10
Energy: -36.95595413166302 Kcal/mole
 H      3.4186071031    -2.1540646071     0.6353629072
 F      3.6232259547    -1.3560246216     1.0380443038
 H      0.4289396956    -0.2806188844     0.3011778867
 F     -0.0193660445    -0.5256603835    -0.4603111987
 H      0.2486560826    -1.8429293286    -1.3589768143
 F      0.6462617268    -2.5708888207    -1.7499675169
 H      1.9115726446    -3.1648502645    -0.8067220499
 F      2.5682003349    -3.3810414926    -0.2042351793
 H      2.2802607297    -0.4141208516     1.5646783445
 F      1.5029308887     0.0717707783     1.5410850784
          10
Energy: -37.37046276611292 Kcal/mole
 H      2.6190028771    -2.6178344424     0.3591222667
 F      2.9109451500    -1.9416466901     0.9054086687
 H      0.5185163627     0.2111921211    -0.2866392754
 F     -0.2997428781    -0.0493075140    -0.6083235226
 H     -0.6028904490    -1.6879472301    -0.8749030868
 F     -0.6013140155    -2.6045498398    -0.9018506391
 H      0.9129599747    -3.3302279527    -0.8166695911
 F      1.7917421564    -3.5692430794    -0.7094192005
 H      2.3045255792    -0.3515681875     0.7987094913
 F      1.9524376089     0.4470368182     0.5173678734
          10
Energy: -37.45419747146178 Kcal/mole
 H      3.1127834249    -2.7274456116     0.3624982921
 F      3.7574314890    -2.0997045127     0.5393004023
 H      1.0111275861     0.1307730805     0.1432623834
 F      0.1901775411    -0.0797149172    -0.2069158947
 H     -0.3421196593    -1.6377230557    -0.3163294260
 F     -0.3587047604    -2.5545728895    -0.3157665752
 H      1.0159966198    -3.3498200308    -0.0607861089
 F      1.8514087995    -3.7113353128     0.0500389372
 H      3.1185147181    -0.5484586308     0.6903738716
 F      2.5774602266     0.1918122131     0.6782036279
          10
Energy: -36.86599652401952 Kcal/mole
 H      3.1864686915    -2.4417252975     0.3352602805
 F      3.8107788947    -1.7849225646     0.4757449419
 H      1.2483940591     0.0987397509    -0.0730640293
 F      0.4203330401    -0.2599770633    -0.2359326758
 H     -0.1914781638    -1.7904848844    -0.4803552604
 F     -0.4141856318    -2.6765603276    -0.5588453404
 H      1.0700668999    -3.4761731453    -0.2676865364
 F      1.9482835833    -3.5472583120    -0.0135775910
 H      3.2685736449    -0.2752575086     0.2330283793
 F      2.8016794287     0.5116881599     0.1729009662
          10
Energy: -37.142657487699324 Kcal/mole
 H      3.4495954012    -1.5436317506    -0.8015329203
 F      3.9419279321    -1.0839020716    -0.1793221029
 H      1.3288696216     0.9584699518     1.1471732502
 F      0.4710722530     0.9739633856     0.8233945790
 H      0.2091390176    -0.0923986524    -0.4939793106
 F      0.2531037882    -0.7353785402    -1.1463081868
 H      1.5034441093    -1.6563209099    -1.6420463125
 F      2.3091157475    -2.0635144867    -1.8032157962
 H      3.3899024949    -0.0040267780     1.0636287276
 F      2.9416829263     0.5612908332     1.6296713202
          10
Energy: -37.51821168577368 Kcal/mole
 H      2.6646208606     0.0969464639    -1.3300891915
 F      3.2722974537     0.7278350833    -1.0588002162
 H      1.0075031486     1.9796716642     1.2459412633
 F      0.1950538181     1.5782966428     1.3863448871
 H     -0.5978902203     0.7459555281     0.1504839019
 F     -0.7515369216     0.2333477753    -0.5941737260
 H      0.5581455825    -0.4901679154    -1.3238842144
 F      1.3495156186    -0.8406661295    -1.6268255747
 H      2.9171585555     1.8253007279     0.1547303280
 F      2.5972383539     2.3390557995     0.8436394593
          10
Energy: -37.412156562006146 Kcal/mole
 H      1.8329987791     1.7741588764    -1.6116626412
 F      2.6153311941     2.0619759273    -1.2295548846
 H      1.8629623272     0.6791912267     1.9099166351
 F      1.1513383279     0.1320924702     2.0974352588
 H     -0.0832033623     0.2747456090     1.0918660549
 F     -0.6824490204     0.3941054002     0.4080920561
 H     -0.1946841871     0.8050448531    -1.1305497663
 F      0.2979535721     1.0951856108    -1.8474984248
 H      2.8691491725     1.8538113681     0.4012298120
 F      2.9533324601     1.6832954392     1.2982953013
          10
Energy: -37.1007329212938 Kcal/mole
 H      1.1666235569     1.1148424474    -1.3105732969
 F      1.9669737971     1.5618393824    -1.3334257167
 H      2.5739872318     0.3370616807     2.2553844785
 F      2.0528127695    -0.2529550317     2.7256465958
 H      0.5105403718    -0.1392681190     2.1419889099
 F     -0.2698565288     0.1051131564     1.7270823304
 H     -0.3632234191     0.2079946821     0.1055141268
 F     -0.2856783541     0.2725332656    -0.8059191039
 H      2.7802496033     1.4762439416     0.1166250607
 F      3.0631377870     1.3406711210     0.9782997591
          10
Energy: -37.623329016306656 Kcal/mole
 H      1.8738965127    -0.3505517125    -1.2482649729
 F      2.7559693033    -0.1349006756    -1.1204713020
 H      1.9388587632     1.4181000759     1.9269556477
 F      1.0985359726     1.5229325451     2.2787464392
 H     -0.1552406273     0.6293147660     1.5386698116
 F     -0.7572303925     0.1164781337     1.0744544402
 H     -0.2413868052    -0.3807402531    -0.4602683610
 F      0.2277406912    -0.5561943102    -1.2283987315
 H      3.2490126561     0.5780756796     0.3176347663
 F      3.3564363132     0.9502181461     1.1488141347
          10
Energy: -37.33706326059894 Kcal/mole
 H      1.7748851687     0.6292096572    -0.6644769276
 F      2.5711121764     1.0337812951    -0.4565506376
 H      1.2785169746     1.3957605854     2.7847691550
 F      0.4195859816     1.4156933604     3.1052831698
 H     -0.5653169087     0.5489133494     2.1539186742
 F     -0.9571109062     0.0589773961     1.4850769701
 H     -0.2723192539     0.0332912085    -0.0344502875
 F      0.2984801598    -0.0359719210    -0.7487888965
 H      2.7315429289     1.1378613660     1.1515341555
 F      2.7282508718     1.1298231727     2.0684930149
          10
Energy: -37.46163789820628 Kcal/mole
 H      2.0036298104     0.2757360466     0.0291468341
 F      2.8207867852     0.1283537768     0.4182765620
 H      1.6223422374     2.3510819310     2.8628814875
 F      0.7546223580     2.6139435322     3.0001949589
 H     -0.3646430967     1.7524732326     2.1643922667
 F     -0.8753928267     1.2100162995     1.6298231045
 H     -0.1329898262     0.8636097052     0.2129421250
 F      0.4900885031     0.7059925445    -0.4411367893
 H      3.1248599273     1.0541448284     1.6727875577
 F      3.0830912318     1.6430268049     2.3744729529
          10
Energy: -37.305837618911 Kcal/mole
 H      1.5670038335     0.8224363842    -0.5643999277
 F      2.2243819072     0.3417915140    -0.1428271855
 H      1.7540120182     2.3545580557     2.7294878670
 F      1.0283396946     2.8641211947     2.9632272223
 H      0.2566632863     3.3332576973     1.6244675990
 F     -0.1304172787     3.5318614168     0.8172413613
 H      0.0350250967     2.3495970057    -0.4068849801
 F      0.3070307450     1.7247793188    -1.0204848379
 H      2.7734354693     0.9447363477     1.2783527925
 F      2.8820946443     1.3223062083     2.1069197386
          10
Energy: -37.31638837712745 Kcal/mole
 H      2.6875527656     1.9538846459    -1.2661616402
 F      3.3170797606     1.3404748686    -1.0047936853
 H      0.6419261602     0.5417568483     1.4288445620
 F     -0.1292180759     1.0099459519     1.5932359562
 H     -0.2036014385     2.5255861730     1.0695648889
 F     -0.1174548246     3.3050232058     0.5942274584
 H      0.8693459535     3.2475275392    -0.7452739123
 F      1.3951371777     2.9875419289    -1.4501427448
 H      2.6341907062     0.3476525069     0.1247603813
 F      2.1207536918    -0.0599321062     0.7659672242
          10
Energy: -37.24480668382665 Kcal/mole
 H      2.9432388351     2.0909555063    -1.4915700823
 F      3.2242933124     1.2186687602    -1.5234010954
 H      0.7416021753     0.3034372617     0.6953663407
 F      0.2979416240     0.9740591579     1.1361844296
 H     -5.325706E-40     2.5008608003     0.4891221603
 F      0.0100294320     3.3136626036     0.0647041205
 H      1.4174085633     3.6287438284    -0.8743756204
 F      2.1723115800     3.5687083636    -1.3914889333
 H      2.4193485935    -0.0649502922    -0.7134102437
 F      1.7384759012    -0.5379706828    -0.3215517399
          10
Energy: -37.339239894564116 Kcal/mole
 H      2.8429184893     1.7453423085    -1.4166641305
 F      3.4255426633     1.2961391651    -0.8692569621
 H      0.7546957685     0.6660049720     1.2856836262
 F      0.0157556662     1.2065301842     1.2338278617
 H     -0.4490373726     2.1694579018    -0.1023228280
 F     -0.4549178949     2.7458994789    -0.8154634366
 H      0.8393059459     2.5997342471    -1.8648551612
 F      1.6001491086     2.3599499129    -2.3170831511
 H      2.8044971372     0.4460768289     0.4628939993
 F      2.2765420921    -0.0031974032     1.0631482243
          10
Energy: -37.269612807771836 Kcal/mole
 H      2.3092630120     1.2331956808    -1.6645667469
 F      2.8278106370     0.5078900859    -1.4502558640
 H      1.3279181369     1.2109989870     1.8595011788
 F      0.7530700243     1.8595724963     2.1591527274
 H      0.3892709140     3.0250946382     1.0982756910
 F      0.2990528589     3.6015368838     0.3908408600
 H      1.0279003314     3.0307708817    -1.0421365184
 F      1.3108003956     2.5643922922    -1.7792576515
 H      2.6589806303     0.2117678836     0.1621193965
 F      2.4328173526     0.1443613229     1.0482319894
          10
Energy: -37.561753447182326 Kcal/mole
 H      4.3392535685     1.4190663611    -0.8053286856
 F      4.2731874494     0.5228778304    -0.9880043139
 H      1.4089755938     0.1054462350     1.0184916446
 F      0.8961667876     0.7938722410     1.3409598794
 H      1.5083717675     2.4017041493     1.1424350640
 F      2.0091768567     3.1501958922     0.9696827172
 H      3.4660550387     3.1817617048     0.1261756830
 F      4.2281752932     2.9801367261    -0.3422355527
 H      3.2682608843    -0.4405268513    -0.1259241040
 F      2.6388285988    -0.8915012923     0.3653253761
          10
Energy: -37.37420715875413 Kcal/mole
 H      3.3221394502    -0.6395660077    -0.5310480958
 F      3.8367256772    -1.2084490776    -0.0285920601
 H      3.2486093258     1.2838129330     2.5972139239
 F      2.5042383520     1.8066945145     2.7129537408
 H      1.7625874571     2.2322357181     1.3216615032
 F      1.4874309023     2.3545594993     0.4555121149
 H      1.8939951405     1.2122183199    -0.6426140232
 F      2.2744315734     0.5258058305    -1.1169504174
 H      4.2766158234    -0.3308681538     1.3883934795
 F      4.4056035589     0.2311644460     2.1013945460
          10
Energy: -37.39697594312872 Kcal/mole
 H      3.0363708976    -0.5277605959    -0.5327339467
 F      3.3084396259    -1.1496509090     0.0838048158
 H      2.3270077844     1.2379440920     2.4949039816
 F      2.3812084858     2.1496762978     2.4130769151
 H      2.2826339262     2.7789321792     0.8915974366
 F      2.1122246105     2.9191892789     0.0015538359
 H      2.3474567349     1.5717512668    -0.9710438093
 F      2.5342610792     0.7793367948    -1.3930301143
 H      2.7421442452    -0.8296745898     1.6676232543
 F      2.3251385105    -0.4010631932     2.3628120688
          10
Energy: -37.4382985269643 Kcal/mole
 H      3.2102843723    -0.2597073019    -0.6424224981
 F      2.7157872144    -0.8906502242    -0.1971443945
 H      2.7518496376     1.3988064066     2.5669185875
 F      2.6995014654     2.3137449330     2.5347291181
 H      2.9871715431     2.8824662606     0.9916539298
 F      3.1283283158     3.0976215451     0.1114994155
 H      3.8660938624     1.8934187300    -0.7971737768
 F      4.1213522271     1.0712272189    -1.1129795500
 H      2.8162299012    -0.5092950183     1.4098076299
 F      2.8989336049    -0.2074203357     2.2717361498
          10
Energy: -37.45928987354162 Kcal/mole
 H      3.0973474007     0.0077931582    -1.1208760820
 F      2.2065983796     0.0714720515    -0.9125489835
 H      3.2784710092     2.5097721839     1.4567307026
 F      4.1168629777     2.8336464314     1.6386465598
 H      5.3490928703     1.9050746799     1.1182381350
 F      5.8997662900     1.2705844259     0.7507195607
 H      5.2811053111     0.5858519643    -0.6793478756
 F      4.7310213320     0.2111275640    -1.3101237785
 H      1.8937585234     1.0564384206     0.3721333995
 F      1.8526485061     1.6427394757     1.0760155198
          10
Energy: -37.41820530809244 Kcal/mole
 H      3.7963651280     0.3892085550    -1.3193048266
 F      2.9120737496     0.6280666098    -1.3624856977
 H      3.0490997444     1.6380371555     1.9963297401
 F      3.8336012433     1.4952460798     2.4491620568
 H      5.3013922512     1.3800470916     1.6199369162
 F      5.9857052463     1.2774153500     1.0182131836
 H      5.7329729635     0.4538021239    -0.3552589394
 F      5.4046478153     0.0342135950    -1.1016080959
 H      2.0380602535     1.2858749368    -0.0035938578
 F      1.8115323519     1.6722800358     0.7965718808
          10
Energy: -37.67272080394227 Kcal/mole
 H      4.4756913196     0.7541191688    -1.4940226136
 F      3.8847434790     1.4458220822    -1.6089866486
 H      3.2502801857     1.6299930032     1.6716971424
 F      3.8732732377     1.3685146180     2.2916952966
 H      4.8805347764     0.1094791611     1.9513401049
 F      5.4359369642    -0.5364123184     1.6118675633
 H      5.5615781104    -0.6043962625    -0.0212104350
 F      5.4696542735    -0.4943024961    -0.9269247226
 H      2.7486956619     1.7876215931    -0.4181928377
 F      2.2631459019     1.9208240765     0.3482192766
          10
Energy: -37.56939307529248 Kcal/mole
 H      3.5428298982     0.0087269953    -1.0839601463
 F      3.1240865803     0.7627593887    -1.3953733498
 H      3.8144971336     2.1071776347     1.8198428470
 F      4.4325024052     1.8068567756     2.4271038008
 H      4.8867824928     0.1977383151     2.3627285455
 F      5.0590778305    -0.6780760173     2.1526034120
 H      4.5574814842    -1.1271894938     0.6214237163
 F      4.3041967181    -1.2209505183    -0.2549008227
 H      2.8999835612     1.8358361179    -0.1799277599
 F      2.8632692774     2.4192025292     0.5266305827
          10
Energy: -37.51457755803537 Kcal/mole
 H      2.6189193687     0.2193876801    -0.7275549688
 F      2.5775835681     1.1076642980    -0.9514857653
 H      4.4817581262     1.6509912922     2.0201078585
 F      4.8825574452     1.0498151461     2.5847636361
 H      4.6123958512    -0.5891247023     2.3510345084
 F      4.3323077488    -1.4331274415     2.1272063800
 H      3.3663484011    -1.3695437609     0.7789197179
 F      2.9262066056    -1.2824497752    -0.0208170122
 H      3.2682508675     2.1033876018     0.2095445162
 F      3.6592188812     2.5451873555     0.9115744229
          10
Energy: -37.341345010324716 Kcal/mole
 H      1.7934058087     0.6182259663    -0.2254465242
 F      1.6014289869     1.4673525108     0.0626819391
 H      4.8191076316     1.5548959361     1.8360615946
 F      5.3721336241     0.8645459556     2.0778634887
 H      4.8378200002    -0.6125964604     1.5549456807
 F      4.4691602206    -1.3314139017     1.1210327252
 H      3.1147934347    -1.2141586640     0.1951306007
 F      2.4006081619    -0.9349418299    -0.3077275858
 H      2.8821463271     2.3639381714     0.8200629837
 F      3.6695664059     2.6204112888     1.2138651671
          10
Energy: -37.585873172342644 Kcal/mole
 H      1.9488418356     0.2967864180    -0.2033619118
 F      1.7121353252     1.1826684506    -0.2118502762
 H      4.5994505639     1.6939533841     1.9342409521
 F      5.2491643932     1.1006255552     2.1925489611
 H      5.2019208214    -0.3769336392     1.3748485610
 F      5.0010826743    -1.0940013996     0.8397159928
 H      3.4985139315    -1.2219223013     0.2484587398
 F      2.6200490486    -1.1590956122    -0.0069649411
 H      2.6933783479     2.1292856728     0.6648861703
 F      3.3168861132     2.5475240839     1.1913875456
          10
Energy: -37.599812650413185 Kcal/mole
 H      1.8973438630     0.3219734983     0.1398959275
 F      1.8123504029     1.2348946263     0.1553919219
 H      4.0641300745     1.3345362719     2.8067396352
 F      4.7551035313     0.7466608184     2.9403327982
 H      4.7961706599    -0.4363519227     1.8220038456
 F      4.7046787891    -1.0904973522     1.1859126614
 H      3.1610714680    -1.3777517105     0.5780937066
 F      2.2889411922    -1.2677798221     0.3169731106
 H      2.3800550700     1.9494234929     1.4967268330
 F      2.7383812014     2.2069059353     2.3005888706
          10
Energy: -37.613795422186485 Kcal/mole
 H      1.5776610429     0.3745004269     0.4683771049
 F      1.2470330918     0.8916555658     1.1496441013
 H      4.2685197026     2.4439108789     1.8552539614
 F      5.0358584121     2.0668296755     1.5237572480
 H      4.9680671190     0.9237969167     0.3146423646
 F      4.8570518280     0.2741889887    -0.3229893042
 H      3.3320566714    -0.2447441131    -0.6086065353
 F      2.4393361413    -0.4392953504    -0.6866377551
 H      2.0702873605     2.1601822479     1.8903170875
 F      2.6421934613     2.8111676771     2.1903677215
          10
Energy: -37.68893463673717 Kcal/mole
 H      1.3542122953     0.5786853908     0.2180007772
 F      1.0506640789     1.3853442472     0.5311284984
 H      4.1836411394     2.2247490642     1.4531324646
 F      4.9413870269     1.7398237586     1.2754878253
 H      4.7804668385     0.1078193909     1.0074618150
 F      4.5338064127    -0.7606793834     0.8469703406
 H      3.0376190796    -0.9207723080     0.1469963749
 F      2.1874015828    -0.8356258829    -0.1858238387
 H      1.9965089148     2.5264273531     1.2988404314
 F      2.7111565197     2.9630771489     1.6723437871
          10
Energy: -37.75125801389626 Kcal/mole
 H      1.2188008299     0.4360744768     0.7877570499
 F      0.8510858699     1.1355420759     1.2529664501
 H      4.2191865127     1.9840109405     2.0547331721
 F      5.0054376359     1.6170240802     1.7580535205
 H      4.8679288740     0.3614514110     0.6893227476
 F      4.6479090097    -0.2882669245     0.0807618683
 H      3.0532859301    -0.7057967933     0.0537376193
 F      2.1444435979    -0.8030063468     0.1275273064
 H      1.9416330453     2.1010172088     2.0349381509
 F      2.6644966796     2.5152543293     2.4180370600
          10
Energy: -37.519014703484544 Kcal/mole
 H      1.0084025579     0.4952758448     1.0766276208
 F      0.6987577194     1.2589462226     1.4788919967
 H      4.2760554043     1.8505453977     2.1238323381
 F      4.9766466665     1.2967861003     1.9154780155
 H      4.6597289868    -0.0301003344     1.0342225241
 F      4.2868694873    -0.7506698549     0.6068534099
 H      2.6545899875    -0.9286343957     0.4243766753
 F      1.7474065018    -0.8002362893     0.3866798646
 H      1.9990705874     2.1706223046     2.0912454980
 F      2.7841212853     2.5710380018     2.3447246316
          10
Energy: -37.498410370817595 Kcal/mole
 H      0.8571121581     0.3105507114     1.0553190311
 F      0.6790881794     1.0678849699     1.5407480001
 H      4.0871100387     1.8238639077     1.6013344510
 F      4.7935071733     1.2967845909     1.3481951972
 H      4.4042463730     0.2717125774     0.1521120892
 F      3.9778361677    -0.2673191615    -0.4549366085
 H      2.4307277277    -0.7666393160    -0.1830161110
 F      1.5907011090    -0.9109178909     0.1552559283
 H      1.9074109844     2.1471589230     1.9002258951
 F      2.7088417610     2.5597231975     2.0687145588
          10
Energy: -37.59754530850512 Kcal/mole
 H      0.7650445034     0.4895953409     1.1150004627
 F      0.7368013060     0.9149191671     1.9269062236
 H      4.2781919254     0.9042476220     2.1122429943
 F      4.8536373500     0.3523812285     1.6592583952
 H      4.1827190677    -0.5193016727     0.3961361867
 F      3.6718316373    -0.9267366665    -0.2471986867
 H      2.0177589775    -0.6052844170    -0.3456582788
 F      1.1573850964    -0.2891207466    -0.3194606013
 H      2.2047388805     1.5319317722     2.6426729669
 F      3.0662372326     1.7434171692     2.8750164976
          10
Energy: -37.71849203975137 Kcal/mole
 H      1.0377430936     0.8882674747     0.8118895723
 F      0.9527738243     1.2072009903     1.6674307086
 H      4.3836888354     0.4896789660     2.0813542969
 F      4.9326036809     0.2586022757     1.3840845818
 H      4.4352373793     0.3683392049    -0.2351070517
 F      3.9596985134     0.4412319089    -1.0157724350
 H      2.2906737080     0.4064843511    -0.9180642635
 F      1.4010876115     0.3950447713    -0.6958150499
 H      2.2924252502     1.0379795222     2.6356334178
 F      3.0989959305     0.9000549600     3.0495290000
          10
Energy: -37.79335474661721 Kcal/mole
 H      0.9451694423     0.5766592244     1.1213441726
 F      0.9371166765     0.7101615926     2.0285383473
 H      4.3898890379    -0.1915487709     2.0386921889
 F      4.9575979574    -0.2851200838     1.3246613828
 H      4.1652002441    -0.5365412193    -0.1328920259
 F      3.5892121999    -0.6623959444    -0.8352362157
 H      2.0206650430    -0.1372465263    -0.6883703034
 F      1.1965457075     0.1870615486    -0.4505876435
 H      2.3327176660     0.2718605181     2.8373437238
 F      3.1679472521     0.0253123743     3.1245623710
          10
Energy: -37.76461267879955 Kcal/mole
 H      1.0851246454     1.0186967909     0.9859510858
 F      1.0584503583     0.9512720556     1.9000798445
 H      4.2982646670    -0.2222122486     2.0824524334
 F      4.7825048402    -0.3941373879     1.3229511490
 H      4.1402143047    -0.3472413490    -0.2260075442
 F      3.6375701455    -0.2235558610    -0.9829353805
 H      2.2139179153     0.5834387194    -0.8255630970
 F      1.4264652179     1.0057183630    -0.6194389791
 H      2.3656273048     0.4729652873     2.8210030947
 F      3.1462079096     0.1801694991     3.2029108661
          10
Energy: -37.72563596645347 Kcal/mole
 H      1.4386506956     1.4595046494     0.9342748766
 F      1.3697412832     1.5589589358     1.8432574605
 H      4.3794189171    -0.1327129595     1.9631704563
 F      4.7910752314    -0.5156753129     1.2387617907
 H      4.2633060951    -0.3359757118    -0.3423038298
 F      3.8995612737    -0.1098298156    -1.1531285572
 H      2.4836873919     0.7561655248    -0.9871101235
 F      1.7480224537     1.2056707632    -0.6746503032
 H      2.6641035379     1.0579889095     2.7493413175
 F      3.4463790751     0.6973545141     3.0637881599
          10
Energy: -37.79983938576464 Kcal/mole
 H      1.3633574816     1.5179030513     0.9844782587
 F      1.3192603638     1.5006915061     1.9002556372
 H      4.4817955986    -0.0910800729     2.0039925447
 F      4.9180995231    -0.4247551446     1.2696977592
 H      4.2631659717    -0.2833985435    -0.2574926218
 F      3.7564616000    -0.1342779933    -1.0070943435
 H      2.4410590369     0.8552205062    -0.8567215143
 F      1.7730038603     1.4383994688    -0.6232829170
 H      2.6304887268     0.9591912769     2.7374023378
 F      3.4036231554     0.6068514699     3.0823788815
          10
Energy: -37.65230882035465 Kcal/mole
 H      1.2972420480     1.3311449050     0.9013947928
 F      1.4042540152     1.5245806134     1.7913498847
 H      4.6074619554     0.0619255143     1.7860299440
 F      5.0884897930    -0.2163491292     1.0566024683
 H      4.3504314680    -0.1021187074    -0.4346796780
 F      3.8329387995     0.0920749847    -1.1663757543
 H      2.2489394970     0.7042680909    -1.0411264119
 F      1.4486084286     1.0352619296    -0.7397922789
 H      2.7398956706     1.0364074795     2.6032996683
 F      3.5257751688     0.6665561615     2.8973955998
          10
Energy: -37.80282542452818 Kcal/mole
 H      1.2439057108     1.3123343395     0.9673730972
 F      1.2614082695     1.4000050178     1.8800047384
 H      4.5353734907     0.0338972572     1.7829379594
 F      5.0156681320    -0.3048851860     1.0790682885
 H      4.3613368642    -0.0919039015    -0.4463850928
 F      3.8456934694     0.0706289903    -1.1870496244
 H      2.3225302100     0.7557746284    -0.9858201858
 F      1.5427597188     1.1173265680    -0.6662467576
 H      2.6629811877     0.9685489669     2.6346947789
 F      3.4984991983     0.6879030536     2.8877491708
          10
Energy: -37.78995231357277 Kcal/mole
 H      1.1342921919     1.4579546722     0.8997517080
 F      1.1550217717     1.6124193200     1.8034109121
 H      4.4029761528     0.1579233374     1.7295218106
 F      4.9420940093    -0.0257874993     1.0108485432
 H      4.1195337353    -0.3327043910    -0.4053153340
 F      3.5344778962    -0.3778396671    -1.1099865140
 H      2.1094382043     0.4910751489    -0.9703167974
 F      1.3893048621     0.9869459721    -0.6938948444
 H      2.4388700723     0.9120277144     2.5736870996
 F      3.2185076506     0.5096099318     2.8403595105
          10
Energy: -37.77888524492229 Kcal/mole
 H      1.1304882213     1.4641941679     0.7898749413
 F      1.2009159017     1.5866397447     1.6959301396
 H      4.4050444013    -0.0186096632     1.7619982516
 F      4.8387011251    -0.3729940397     1.0358835502
 H      3.9898333731    -0.3972788836    -0.3535862773
 F      3.4314827068    -0.3396384427    -1.0787146196
 H      2.0409799512     0.5399904442    -0.9950721960
 F      1.3070272881     1.0572753273    -0.8090108136
 H      2.5251976894     1.0230740316     2.5082164836
 F      3.2919056134     0.6439680087     2.8388621892
          10
Energy: -37.81718958483651 Kcal/mole
 H      1.1583204128     1.5736766363     0.7299819851
 F      1.1584153561     1.6583827175     1.6430613195
 H      4.3292374488     0.1089242809     1.8141212459
 F      4.8676266998    -0.0879299726     1.0983877640
 H      4.1793416927    -0.0486542517    -0.4137434279
 F      3.6500466417     0.0431024884    -1.1569233856
 H      2.1762900573     0.8206203221    -1.0499188254
 F      1.3869322742     1.2432621965    -0.8519866748
 H      2.3869503228     0.9702331829     2.5404992224
 F      3.1384642237     0.5811771201     2.8937006335
          10
Energy: -37.800294388988476 Kcal/mole
 H      1.0547375772     1.4494182874     0.6906769570
 F      1.0630094784     1.5795479362     1.5983590875
 H      4.2550101332    -0.0171892354     1.7755923569
 F      4.7537527678    -0.3153020645     1.0661746199
 H      4.2090319677     0.0430468316    -0.4719980362
 F      3.7617122395     0.2701058771    -1.2396165942
 H      2.1947006475     0.7930757451    -1.0963039671
 F      1.3562682444     1.1067223898    -0.8974424883
 H      2.3770002279     1.0643124915     2.4729305248
 F      3.1652434352     0.7200626167     2.7908199237
          10
Energy: -37.856539297517486 Kcal/mole
 H      1.0829622772     1.3861795751     0.6488345752
 F      1.0594542930     1.4972823734     1.5587755309
 H      4.2843417091     0.0800750872     1.7727660750
 F      4.7922583546    -0.2195649943     1.0705371217
 H      4.2491014664     0.0421076218    -0.4939173232
 F      3.7936086186     0.2438416803    -1.2637995449
 H      2.2217196679     0.7989847686    -1.1844882085
 F      1.3831577543     1.0910523449    -0.9555789515
 H      2.3851204870     1.0592798653     2.4511463301
 F      3.1712220567     0.7544902848     2.8117522559
          10
Energy: -37.85073527340731 Kcal/mole
 H      1.1200644431     1.4741082059     0.6471103349
 F      1.1309964453     1.6298641944     1.5507195222
 H      4.2946267090     0.1322872839     1.7333542395
 F      4.8128652248    -0.1902215901     1.0490254684
 H      4.2525979572     0.0277140206    -0.4944182991
 F      3.7960264923     0.2181209249    -1.2665431000
 H      2.2338929063     0.7477646240    -1.1772265866
 F      1.4021225440     1.0591651812    -0.9490232623
 H      2.4337565577     1.1060994341     2.4436298987
 F      3.2044619192     0.7618762937     2.8019770425
          10
Energy: -37.8645330958488 Kcal/mole
 H      1.1404496941     1.4792706925     0.6375016426
 F      1.1609201066     1.6591956960     1.5364437738
 H      4.3225424704     0.1170887208     1.7626829021
 F      4.8093448108    -0.2088436335     1.0572181037
 H      4.2401617758     0.0460365492    -0.4829699689
 F      3.7966862030     0.2171489571    -1.2671504075
 H      2.2213530888     0.7551341962    -1.1746468306
 F      1.3900062970     1.0671070970    -0.9456830323
 H      2.4404075946     1.1334957040     2.4540852995
 F      3.2105395763     0.7869401726     2.8114156709
          10
Energy: -37.87922144576649 Kcal/mole
 H      1.1456386415     1.4877740040     0.6357414634
 F      1.1606448449     1.6587446149     1.5365371473
 H      4.3101782928     0.1185566514     1.7544875733
 F      4.8034828412    -0.2060727613     1.0529497147
 H      4.2421930265     0.0260118169    -0.4887828973
 F      3.7965784499     0.2182112228    -1.2668420451
 H      2.2246299320     0.7609582871    -1.1705430595
 F      1.3898324681     1.0667981424    -0.9459007279
 H      2.4387553930     1.1299047750     2.4541865757
 F      3.2106272218     0.7871306631     2.8114102985
