          10
Energy: -37.86991646130346 Kcal/mole
 H      2.9556062429    -1.7734080627    -3.4519291979
 F      2.6104276324    -1.6166722394    -2.6169593729
 H      3.3192287391    -4.9876752111    -1.8478584773
 F      3.6026165372    -5.6354500974    -2.4317831750
 H      4.3349879207    -5.1152241296    -3.8154026493
 F      4.6719470093    -4.6698448534    -4.5427161119
 H      4.0545016174    -3.1607652198    -4.8438305482
 F      3.6473493224    -2.3391623565    -4.8530361870
 H      2.7242048203    -2.8414314252    -1.5131477795
 F      2.8553559181    -3.6095715560    -1.0297751189
