          10
Energy: -37.87644224183899 Kcal/mole
 H      0.3924939531     0.3989671665     2.9958159644
 F     -0.3555743177     0.4430499811     2.4672901206
 H      1.2815872149    -1.5018340491     0.0077865105
 F      2.1311686373    -1.8433389514     0.0575339566
 H      3.0889131777    -1.2794443409     1.2920016840
 F      3.4775411527    -0.8957699192     2.0286503351
 H      2.5234305644    -0.1997281955     3.1900695120
 F      1.8684948979     0.1676346257     3.7163705954
 H     -0.3483043128    -0.2965636621     0.9809480759
 F     -0.1872978356    -0.7452420052     0.1975875850
