          14
Energy: -54.11977365897137 Kcal/mole
 H      0.8895324755     0.8782412791    -2.0710249351
 F      1.2270289896     1.6809373150    -1.7835111496
 H     -1.6485370273    -1.9934161771     1.4734681501
 F     -1.9693632325    -2.4593448735     0.7517549134
 H     -0.0936235679    -0.7401170034     2.4720643269
 F     -0.9562138941    -1.0174905022     2.6130993275
 H      1.4545420960     1.9598869520    -0.1662098009
 F      1.5294861714     2.0021103141     0.7467467004
 H      1.5017628315     0.5945214222     1.6051026303
 F      1.4055633336    -0.2239051669     2.0073619681
 H     -2.1232714206    -1.6239376800    -0.6596372065
 F     -2.1044481532    -1.0965060417    -1.4095375675
 H     -0.6369078528    -0.8008294350    -2.1025776921
 F      0.2131276068    -0.6030369637    -2.3840148178
