          14
Energy: -54.108698791063844 Kcal/mole
 H      0.6431057452     1.2824630458    -1.8268643800
 F      1.4785959101     1.5298319465    -1.5411130697
 H     -0.2402018396    -1.5549028340     1.5245546668
 F     -0.8790928999    -0.9314955267     1.7344845179
 H      1.8269099129    -2.2267850948     0.9707756415
 F      0.9704089432    -2.5538235696     0.9892397958
 H      2.7353439350     0.4537169825    -1.5052039836
 F      3.3628481743    -0.2080519162    -1.4093428637
 H      3.3999027728    -1.0145403726     0.0290808737
 F      3.2783643432    -1.4528095914     0.8253455923
 H     -1.8459603713    -0.2929263459     0.5570812928
 F     -2.2831819927     0.0583192207    -0.1684204686
 H     -1.4270037917     0.4866840331    -1.5171075327
 F     -0.8522973344     0.7000879847    -2.1990607873
