          14
Energy: -54.095740222761464 Kcal/mole
 H      1.4134866231    -5.8076091799     0.2687627715
 F      0.6770043206    -5.3740202636    -0.0636277667
 H      0.9711696265    -4.5596333261     5.2117482056
 F      1.3901484368    -5.3717839679     5.1358727055
 H     -0.3557294153    -2.9634435156     4.4286012983
 F      0.2154150092    -3.0952529559     5.1338029133
 H      0.2991853757    -3.8582475001     0.4759805794
 F      0.1250982669    -3.0504026342     0.8734341630
 H     -0.8121513530    -2.8970340149     2.2316969160
 F     -1.2517234915    -2.8814390986     3.0363223777
 H      2.6308151578    -5.5481586277     4.0716060973
 F      3.2611365909    -5.6021137426     3.4077742387
 H      2.9752913780    -6.2007735847     1.8763182583
 F      2.7227586360    -6.4706332997     1.0370972215
