          14
Energy: -54.11855326387999 Kcal/mole
 H      0.8883816550     0.8779193087    -2.0670232155
 F      1.2288768388     1.6781753792    -1.7762617130
 H     -1.6504931066    -2.0144040254     1.4766683597
 F     -1.9808168419    -2.4713161842     0.7534764702
 H     -0.0836276312    -0.7578251270     2.4826311045
 F     -0.9421071447    -1.0485134662     2.6219229361
 H      1.4691734360     1.9588626437    -0.1626925338
 F      1.5516476027     2.0039017642     0.7494798673
 H      1.5106306912     0.5982760445     1.6198511238
 F      1.4104463631    -0.2179700397     2.0255535154
 H     -2.1268358446    -1.6259837080    -0.6592180307
 F     -2.1044269954    -1.0948995320    -1.4064371696
 H     -0.6406954701    -0.7959173835    -2.1048752660
 F      0.2077802330    -0.5967482613    -2.3900237221
