          14
Energy: -54.11994795659854 Kcal/mole
 H      0.9081938407     0.8682438977    -2.0866006036
 F      1.2495694223     1.6669668296    -1.7926730780
 H     -1.6370631998    -2.0162540650     1.4875872518
 F     -1.9562093925    -2.4669416852     0.7555248387
 H     -0.0887656449    -0.7719273248     2.5060345449
 F     -0.9448445900    -1.0667244070     2.6513360247
 H      1.4358781240     1.9446613228    -0.1714827497
 F      1.4893557941     1.9886652663     0.7428983479
 H      1.4799912771     0.5885011728     1.6188504165
 F      1.3968777757    -0.2264610802     2.0309398146
 H     -2.1027488509    -1.6204314256    -0.6546405660
 F     -2.0824966542    -1.0905930417    -1.4028050770
 H     -0.6245020666    -0.8021089697    -2.1163646467
 F      0.2215221754    -0.6059692066    -2.4107473490
