          3
Energy: -2.097966016304914E-4 Kcal/mole
 He    -5.9487277479     1.2596860340    -6.9084097102
 He     0.7962027776     1.5325367266    -5.3921562191
 He     6.1631110322    -4.5720590390     3.9915635416
          3
Energy: -7.125485450512415E-5 Kcal/mole
 He     6.0299781368     2.2517605966    -4.8009005614
 He     3.9937832874     6.0420460604     2.5482161091
 He    -7.0359194848     3.8671455517     0.6323428643
          3
Energy: -2.884193488858899E-4 Kcal/mole
 He    -6.6376145673    -3.6579320620     5.0736475091
 He     4.4540528002     1.5830368814     4.2272667573
 He    -2.0056369451    -3.1047804978     0.2144525707
          3
Energy: -4.056456914542791E-4 Kcal/mole
 He     6.0537492316     1.3071460226    -1.8551959554
 He     3.4240873740    -5.1059821722     1.2614520411
 He     1.6531394491    -0.9463911802     6.1352795346
          3
Energy: -1.1181666799592754E-4 Kcal/mole
 He    -4.3594558022    -3.0411377294     4.8953223391
 He     6.5972394427    -2.6989911546     0.4336048051
 He     3.3823252123     4.4652393461     0.8928554710
          3
Energy: -9.336236891608357E-6 Kcal/mole
 He     5.7986538025     5.8351945678     4.6907898566
 He    -5.1546347605    -0.5137592869     6.6106474689
 He    -6.5070878759     5.9043173323    -5.7205497028
          3
Energy: -8.840491269983497E-5 Kcal/mole
 He     4.3026042264     4.3557067939     0.6184596093
 He     1.2671053882    -6.8596755825    -7.3600759816
 He    -3.1404743340    -0.0174335677    -6.5193148968
          3
Energy: -7.514076661698626E-4 Kcal/mole
 He     3.7439056437     2.0292016138    -1.6210073353
 He     1.1039039519     3.7661695626     3.1051586928
 He    -0.3804713519    -4.8277145455     2.0590380779
          3
Energy: -0.004012721918921604 Kcal/mole
 He    -0.7458631126    -7.0955321476    -6.2708693598
 He     6.1300270465    -0.5454495937     7.1700914265
 He     0.8209852249    -3.9674611941    -3.9979865043
          3
Energy: -0.059999848312813436 Kcal/mole
 He     0.9996732368    -6.8967652432    -3.1418781566
 He     2.6748873625    -5.0075197375    -1.7795421969
 He    -0.0255196227    -4.3068213887    -2.4545405454
