          3
Energy: -2.0565528363087715E-5 Kcal/mole
 He    -6.5967327112    -6.6533360384    -5.5998225745
 He    -5.3446632287    -3.5464733730     4.1833408086
 He     6.9669708889     2.4416119538    -4.8014989224
          3
Energy: -0.0043985226716647145 Kcal/mole
 He    -5.8300108902     0.4437718286     4.6869288943
 He     1.2810670785    -1.9302870374     6.0922868043
 He    -5.7229217960     4.0718320422     6.6548586263
          3
Energy: -0.0031192351414056426 Kcal/mole
 He     6.4238342818    -4.2762091116     2.2024970912
 He     0.5134227484    -2.4336419109    -4.6434165845
 He     4.4900324069    -2.7352846358    -6.4505247545
          3
Energy: -1.0174715106694535E-5 Kcal/mole
 He     3.5116118038     7.4717585083     6.9487702373
 He    -0.5701072957    -3.2032214465    -6.1298958728
 He    -2.4186545148    -4.6542985098     6.1982326624
          3
Energy: -7.1463297213952715E-6 Kcal/mole
 He    -7.1685620468     5.0687077797    -1.4505996645
 He     1.1271604429    -5.9526234761     4.2010766002
 He     4.6631828484     6.1816112759    -7.2162559915
          3
Energy: -1.3126885314212057E-4 Kcal/mole
 He    -3.5225317173     3.2675602138     3.2511156195
 He     2.2911850329    -6.4974886774     3.1684650860
 He     4.2292500248     2.8391347144     1.8815123134
          3
Energy: -0.007118732721320237 Kcal/mole
 He     4.7053190309     6.8727136420    -1.8995417090
 He     3.9974690534     3.2630990734     5.4172154383
 He     1.0956241482     5.7779619693    -2.0071570320
          3
Energy: -1.6168375537790647E-4 Kcal/mole
 He    -7.1432203538    -5.5360893002    -5.9744285499
 He    -6.1663836226    -4.9861352425     5.8531782840
 He    -7.3105656727     2.0784431531     4.4940134893
          3
Energy: -0.0020798562718045803 Kcal/mole
 He    -1.3518946811    -6.1879964069    -0.4863182108
 He    -3.3629916975    -3.2442260768     5.3317631157
 He    -4.2930508258     0.1340113984     2.0116731920
          3
Energy: -0.05999648504795119 Kcal/mole
 He    -1.8519113327    -1.9677895032     0.9035985982
 He    -2.7447333901    -2.3937868368     3.5968652716
 He    -4.6089056078    -2.5536689813     1.4298670655
