          3
Energy: -0.004968981609954343 Kcal/mole
 He    -5.3336791679    -0.4136075145     2.4891477484
 He    -7.3236316788     0.1045772004    -7.2287278734
 He    -5.4097658142    -4.3685382898     1.7645075611
          3
Energy: -8.645374150675177E-6 Kcal/mole
 He    -4.9240320110    -5.2563942751    -2.7373819410
 He    -5.3365400935     7.2746313726     3.7616573174
 He     6.8768287246     1.3634284778     2.6841157583
          3
Energy: -0.0014530838260168495 Kcal/mole
 He    -5.6647445711     1.4664273135    -2.2134939049
 He    -4.1675696011     2.4749545636     2.7271587562
 He     0.1707084892     2.5313780976     7.1166217933
          3
Energy: -5.23985432750769E-4 Kcal/mole
 He     7.2658849112    -0.5783133542    -1.0567123921
 He    -3.1170311433     6.0859734639     1.8741871018
 He    -1.7428447659     0.3741073909     2.8783002925
          3
Energy: -1.764538761293592E-5 Kcal/mole
 He    -4.6058492531     0.4927019919    -4.2197797828
 He     6.8305567691     6.5144681940    -3.3498766091
 He    -3.7228914706     1.2600697640     6.9038272497
          3
Energy: -4.477973579383879E-4 Kcal/mole
 He     0.4949555202     1.8272772709     2.0613635953
 He     1.3824862093    -3.4279865579    -5.1671795165
 He    -4.3295191681     2.0704398627    -2.0189585186
          3
Energy: -2.0167870865359056E-5 Kcal/mole
 He    -0.3485353828    -4.9653437500    -0.4729817271
 He     7.3739854047    -4.9127731459     7.0790954783
 He    -5.3755460903     6.5716383704     0.2182538415
          3
Energy: -0.012655533650189654 Kcal/mole
 He     2.5989269544    -3.7570833939    -1.9515671919
 He     6.1488446744    -2.7951930114    -0.1737518695
 He     6.3250525991    -6.5503837618     0.1995487647
          3
Energy: -1.3257943918228032E-4 Kcal/mole
 He     3.7104279946     3.4572554784    -3.6628921627
 He     3.8061958531    -4.7729810240    -0.8836214352
 He    -3.0471208808     7.2846079077    -1.2825520537
          3
Energy: -0.059998881796319375 Kcal/mole
 He     6.2773967357    -2.8032126140    -3.4870498278
 He     3.9478366535    -2.5901910463    -1.8305316660
 He     3.6730182160    -2.7184383865    -4.6858140862
