          3
Energy: -2.711545459026538E-4 Kcal/mole
 He     7.2894342769     6.1303835901    -0.2364919901
 He    -1.8480701956     6.6875103598    -5.1045664140
 He     6.2410198015     5.6299963478     6.3415932001
          3
Energy: -2.3382857285008076E-4 Kcal/mole
 He     5.6832502129     5.2034096070    -7.1926654609
 He     5.6606232138    -2.5260322078    -6.0016117834
 He     1.1979249139     0.2621954403    -0.3791008977
          3
Energy: -7.736248233414654E-5 Kcal/mole
 He    -0.8038176946     6.3266055377    -1.9335554526
 He    -6.9743957500    -7.0243030516     0.3836106941
 He    -5.5535912927     1.2272203598     4.0518503158
          3
Energy: -3.7746846261341237E-5 Kcal/mole
 He    -3.0366627566    -5.0777731631    -6.5348945155
 He     6.1324271713    -3.8107699907    -7.3754504796
 He    -4.2126549046     5.1399456914     3.6825254286
          3
Energy: -8.095104152601985E-5 Kcal/mole
 He     5.7038372259    -1.8465355949     7.0304341684
 He    -4.8254219558    -3.7364543042     6.3373789329
 He     6.7094343032    -1.4400784895    -1.3020910452
          3
Energy: -5.344516405521874E-5 Kcal/mole
 He    -6.2681622281     0.7802427220    -0.8535930761
 He    -1.4838137109    -5.3761717336     3.8587152240
 He     2.3334945505    -6.8962578629    -6.8467388616
          3
Energy: -3.846058256563441E-5 Kcal/mole
 He     1.1379055755    -3.4992965190    -3.5367948717
 He    -4.2474367807     7.4487884862    -0.1775622355
 He     5.5976781400    -7.3545689839     3.7789689916
          3
Energy: -1.0012673266284554E-4 Kcal/mole
 He    -6.0281781656    -4.2260995226     5.9605379652
 He     0.5485480053    -2.6375565952    -6.5266648940
 He    -5.9113195133     1.3210662460    -4.0880027834
          3
Energy: -1.4340336765721112E-5 Kcal/mole
 He     3.1805283648     7.1085380269     0.5991303324
 He    -6.7958090751     7.2256462423    -4.4818579881
 He     7.0053096939    -5.3882972708    -5.4519985988
          3
Energy: -0.0599995746406424 Kcal/mole
 He    -1.0490784124     4.7063150005    -2.6561365166
 He    -3.8156262528     3.9505508149    -2.6591354947
 He    -2.0631892465     2.9656798634    -0.6145333138
