          4
Energy: -0.0011776545268501746 Kcal/mole
 He     4.6130702834    -6.4274585933    -5.2140333009
 He    -0.3000475917     2.7694859588    -2.7556340046
 He     3.3218510860     1.3910029766     3.2455191648
 He    -0.2697359953    -3.8462733774    -4.7519622413
          4
Energy: -9.585658543971935E-4 Kcal/mole
 He    -1.1671707042    -1.0504744066    -2.5585422574
 He     4.2786471611    -6.8837000750     2.1335173002
 He    -6.4603172043    -1.4462588657     4.3015624391
 He    -3.2409278689    -6.0826861669    -1.1283759363
          4
Energy: -0.004171167637626966 Kcal/mole
 He    -3.5053882201    -5.8353231333     1.8389955786
 He    -4.9005573357    -3.5875616516    -5.2338280398
 He     2.8644677005     4.4699163772    -3.7207335174
 He    -6.0606525974     0.4222606709    -5.3282882459
          4
Energy: -0.0022140267196080333 Kcal/mole
 He    -4.5224396534     6.7202008120     7.2525742518
 He     1.7790314546    -2.2813904214     5.4072176365
 He     1.9301429852    -4.0889594504     1.1427473190
 He     0.0547315887     5.7597914026    -6.4248963787
          4
Energy: -1.0140027286573777E-4 Kcal/mole
 He     7.3403794084     2.5732599248     6.2153288061
 He     6.1783116804    -6.5021555193     6.2086596145
 He     1.9091002443     2.9345271477    -2.7569295814
 He    -6.0540051747     5.4620929246     0.7300048777
          4
Energy: -2.7097958227174343E-4 Kcal/mole
 He     3.6787428658    -5.7414738392     6.9142437112
 He     6.3626506735    -2.5010936862     0.9567493929
 He    -2.7251264357     6.6373943818    -2.1309806510
 He     3.1886899805    -3.5623629949    -5.9725956771
          4
Energy: -1.6130745070708701E-4 Kcal/mole
 He     3.6968660326    -3.3152472747     0.9284199183
 He    -1.3653330040    -3.6271180919     6.3678566765
 He    -7.1836495672     7.3765403794     6.3987388194
 He     1.8889059709     2.9311312995    -6.9487577678
          4
Energy: -0.018411078191928873 Kcal/mole
 He    -1.5699873153    -5.3427455899     2.1698046956
 He     2.5341612235    -7.1262374213     0.4392210264
 He    -1.1554881158    -7.2924770955     3.9677466678
 He    -6.9878743707    -3.1176805073     7.2633061959
          4
Energy: -2.964553587579717E-5 Kcal/mole
 He     5.5531257950     6.2661463677     6.1666260924
 He    -5.3158210318     5.3251219615     5.4403621817
 He    -1.8973252678    -0.6360277560    -6.2032893493
 He     6.2189578022    -5.5879580662     3.9832998543
          4
Energy: -0.11997409143636314 Kcal/mole
 He    -0.6991602924     3.6120510183     2.7852943895
 He    -3.1401346100     2.4753425141     3.7676143847
 He    -1.8977251346     1.4090622678     1.3966765061
 He    -0.6969432627     0.9837428797     3.9607309668
