          4
Energy: -0.011914750821381794 Kcal/mole
 He    -1.5115888687     1.5930178345    -5.3292205243
 He    -1.9984185497     5.2115743292     1.8812360325
 He    -3.9980988028     0.8034952294    -5.7368253354
 He     5.7963366103    -0.8715015542    -3.8165697893
          4
Energy: -0.001113787642864941 Kcal/mole
 He    -5.8207909980     1.0484740947     0.1734284061
 He    -1.0584537635     3.0725871873    -2.0276898793
 He    -3.8458217285    -3.1124399805    -5.2179793494
 He     2.9446077471     6.9329155910    -7.4227395868
          4
Energy: -1.4077376976630497E-4 Kcal/mole
 He    -5.6143942770     5.2589423419     4.8222479417
 He     5.9636458781    -2.8609402430    -0.8111541841
 He    -1.5498125603    -2.6814090529     2.3842972224
 He    -5.0753928979     1.2580821051    -6.6469129906
          4
Energy: -0.020038901268904924 Kcal/mole
 He     1.1508360002     6.3779787666     6.4517318870
 He     0.3101806922    -5.1349841906     3.9256140741
 He     1.9257777137    -6.2585925701     1.7006614167
 He     4.3244095257    -3.1071988734    -2.4298038686
          4
Energy: -3.073461708158938E-4 Kcal/mole
 He     0.2417766590     3.4141592931    -2.4623328252
 He    -4.8590006913    -6.0260216144     1.7952385058
 He     4.5565440601    -4.4882727701    -7.0123514429
 He     0.0315265224     1.9338947116     4.0941775992
          4
Energy: -1.9309119422704254E-4 Kcal/mole
 He    -1.1405037679     4.7071301391    -4.8652144632
 He     7.2609707688    -5.0089401138    -2.2483550670
 He     4.2991240356     5.7768512465     5.4662703186
 He     5.7637875510     7.3657890210    -2.5527479549
          4
Energy: -3.7940213333449084E-4 Kcal/mole
 He     3.5194917388     7.3070308744    -7.4792041515
 He     2.3580067108    -2.8178660460     5.9982868360
 He     5.5363737731    -4.6436774348    -3.2318987209
 He    -0.8204291543    -2.6294015881    -0.1300836671
          4
Energy: -0.019697720892037137 Kcal/mole
 He    -3.6950826766    -4.9657343982     1.2410960897
 He     3.2516612202    -5.2885374031    -5.7934803352
 He    -1.1546102582    -3.9122946608     2.7459745426
 He    -5.3888572240    -6.1088604954    -2.6843835394
          4
Energy: -0.00844241909135135 Kcal/mole
 He    -1.5292108866     5.0482443397     6.7927309253
 He     6.7807131583     4.5122959371    -6.6548198508
 He     5.5807822390    -5.4337214688    -3.4924172824
 He    -0.5973127355     2.4764056935     4.3879523685
          4
Energy: -0.04036318184748262 Kcal/mole
 He     0.5899251657     7.0722144400     4.2044721119
 He     4.6590498830     2.0142663171    -2.5270674190
 He     6.0969791805     1.4561468788    -4.9490865678
 He     1.5394408148     5.3427712135     2.1104610206
