          22
Energy: -87.18008221135443 Kcal/mole
 H      2.1999424982    -3.3141896909     1.6407467739
 F      1.9811268663    -2.6552665134     2.2397701169
 H      3.1789306454    -0.5070517880     4.9506040903
 F      3.0601330701     0.0055340478     5.7016246606
 H      6.7281434434    -1.8553287939     3.8682380471
 F      6.7959388555    -1.8328162160     2.9540247427
 H      5.6036299081    -2.5355187784     2.0409993144
 F      5.0048937718    -2.9700262844     1.4991439220
 H      4.5414857739     0.1423788690     6.4294684939
 F      5.4195230901     0.0876281388     6.6881996842
 H      2.2705538898    -4.3837451353    -0.3776721572
 F      2.5302286595    -4.4774400806     0.4967872593
 H      2.9167830474    -4.1295412171    -2.3572465097
 F      2.0806341144    -4.1456361066    -1.9811017020
 H      5.6221499126    -3.7839039132     0.1929169217
 F      5.9463993696    -4.1846096661    -0.5654933824
 H      6.2134600812    -1.1797470433     5.9856993001
 F      6.5533166117    -1.8884527642     5.5133406018
 H      5.1046919085    -4.1474222122    -1.9957027814
 F      4.5335211027    -4.0984066930    -2.7114194778
 H      3.1428833014    -1.9033861845     3.1442112889
 F      3.7230753519    -1.4575220758     3.6969059434
