          22
Energy: -87.17234805188018 Kcal/mole
 H      2.0668072882    -3.0701330652     1.4578925550
 F      1.8653423123    -2.4003925495     2.0509764488
 H      3.1877439604    -0.3405888055     4.8115049164
 F      3.1045913142     0.2436085618     5.5134223427
 H      6.6650377604    -1.6874769078     3.6746850508
 F      6.6957966363    -1.7432155308     2.7598975905
 H      5.4838001076    -2.4062258589     1.8561950454
 F      4.8745195902    -2.8127497892     1.3044663575
 H      4.5975546317     0.4864110730     6.1863660033
 F      5.4825671022     0.4796387661     6.4263578008
 H      2.1586995116    -4.2144247953    -0.5476981602
 F      2.3802162593    -4.2749113037     0.3400859987
 H      2.8796629396    -4.1252730331    -2.5349736560
 F      2.0385037954    -4.0611650978    -2.1754872629
 H      5.4759924709    -3.7443931342     0.0751296889
 F      5.8014301491    -4.2160279529    -0.6407892419
 H      6.2675999094    -0.8160324078     5.7747040273
 F      6.5902039832    -1.5514052481     5.3319372746
 H      5.0402696873    -4.2460323605    -2.1151329220
 F      4.5035994972    -4.2245701675    -2.8583781584
 H      3.0512158642    -1.7763464223     3.0245116124
 F      3.6508090455    -1.4034180243     3.6095769308
