          22
Energy: -87.09537664379583 Kcal/mole
 H      0.7762975378    -0.5063143581     1.2877248637
 F      0.1628035931     0.1117217653     1.5750322428
 H     -1.7485933795    -2.6290735122     1.0665823685
 F     -1.4997586473    -3.3523798359     0.5608173657
 H      3.6905014252    -5.7498972754    -0.3849439264
 F      4.2134538886    -6.5004626580    -0.4486724703
 H      5.7931019744    -6.3941880511     0.0634662204
 F      6.6456506899    -6.2128730288     0.3483776987
 H     -0.1644087642    -4.2912378613     0.8917118374
 F      0.5849740073    -4.7873907370     1.0737744248
 H      2.3630326001    -1.7363690910     0.2160683120
 F      1.6453520657    -1.8267674530     0.7796743683
 H      4.2103482669    -2.1086820819    -1.0319632866
 F      3.6447699068    -1.4314363316    -0.7822668462
 H      7.2860257432    -4.6978463080     0.0856959055
 F      7.4498075537    -3.8241284811    -0.1394300095
 H      2.0185556211    -4.4623948263     0.3125633026
 F      2.8140222895    -4.3686842437    -0.1339118996
 H      6.1325073790    -3.3844077608    -1.0072157924
 F      5.3223959325    -3.2881403477    -1.4259532154
 H     -1.2672982210    -0.6645461343     1.8731161462
 F     -1.9653512310    -1.2531823834     1.9574865285
