          22
Energy: -87.1196563059358 Kcal/mole
 H      0.5398244687    -2.9505512206     1.7381840189
 F      0.5092447040    -2.6522537571     2.6047707146
 H      2.2610800247    -2.5543483470     5.8183452725
 F      2.2887826444    -2.4341064160     6.7270055187
 H      5.5309759290    -3.0963186886     3.7062368873
 F      5.4221449564    -2.7503727934     2.8639980512
 H      4.0534390634    -2.9783344570     1.9652185966
 F      3.3575911446    -3.1182959666     1.3846193804
 H      3.8761121867    -2.3897476161     7.2010610828
 F      4.7900484868    -2.4213261251     7.2689745358
 H      0.4327939537    -2.9162618079    -0.5898554184
 F      0.5542777699    -3.4610136281     0.1377269734
 H      1.3121651385    -2.0180999243    -2.3028276619
 F      0.4834507419    -1.9530438977    -1.9156724446
 H      3.7770818305    -3.6117537763    -0.1261263955
 F      4.0017400350    -3.8079771577    -0.9932561873
 H      5.4544535234    -3.2558229052     6.0075190762
 F      5.6981795659    -3.7054529778     5.2463887233
 H      3.3539708437    -2.8540051700    -2.1675140573
 F      2.8855885414    -2.2994201546    -2.7278197593
 H      1.8422049359    -2.7446579459     3.5855850247
 F      2.5286182498    -2.7797431727     4.1926227412
