          22
Energy: -87.15276320517256 Kcal/mole
 H      1.7584762292    -2.9596273890     1.6545379453
 F      1.6741815240    -2.1358883178     2.0485396526
 H      3.1709265436     0.2677281504     4.3125222050
 F      3.1030996688     0.9100852953     4.9634183668
 H      6.4416197020    -1.9977508071     3.7401029574
 F      6.5494450335    -2.1779503293     2.8474715496
 H      5.2598097626    -2.7615098092     2.0065629393
 F      4.5847412650    -3.1524330703     1.5245354219
 H      4.5049224098     0.8073363982     5.8206618084
 F      5.3239336048     0.5966368670     6.1752254419
 H      1.6172748543    -4.5280732581     0.0044690286
 F      1.8617789232    -4.4271124964     0.8824859333
 H      2.2747035998    -4.9010008551    -1.9647911409
 F      1.4547857081    -4.6920829601    -1.6112703297
 H      5.0101520216    -4.3828216296     0.4918405553
 F      5.2372064447    -5.0231932849    -0.1239998721
 H      5.9355552843    -0.8669411133     5.7023120074
 F      6.1920657906    -1.6773869362     5.3584095093
 H      4.4228657851    -5.1859604653    -1.5633057481
 F      3.8656457564    -5.2120423984    -2.2911206781
 H      2.9602237592    -1.4233110441     2.8168767523
 F      3.6038861398    -0.9775192332     3.2942208642
