          22
Energy: -87.18874036420429 Kcal/mole
 H      2.2304384597    -3.2590420857     1.5991363010
 F      2.0071916787    -2.5824665318     2.1764537134
 H      3.2093378100    -0.5462164922     4.9712705667
 F      3.0866659786    -0.0297774399     5.7190214122
 H      6.7165780198    -1.8937815352     3.8884321471
 F      6.7968187312    -1.8640160988     2.9754346406
 H      5.6204499657    -2.5146626213     2.0096664696
 F      5.0252941789    -2.9166816933     1.4395267892
 H      4.5577130452     0.1097275613     6.4578178178
 F      5.4340272871     0.0548413572     6.7222981650
 H      2.2908970438    -4.4404702100    -0.3652040635
 F      2.5746591116    -4.4686243074     0.5063321869
 H      2.8936180615    -4.2867269893    -2.3682743524
 F      2.0618455997    -4.3161406383    -1.9833348649
 H      5.6316435084    -3.7627259291     0.1468159321
 F      5.9491529071    -4.1863079792    -0.6019530767
 H      6.2118607552    -1.2179699593     6.0189330943
 F      6.5387683761    -1.9292591694     5.5413474297
 H      5.0879085375    -4.2204204888    -2.0210696816
 F      4.5086471069    -4.2123892639    -2.7319006703
 H      3.1688247825    -1.9005811153     3.1367402550
 F      3.7522661290    -1.5003628777     3.7201016846
