          22
Energy: -87.1927915545232 Kcal/mole
 H      2.2013042132    -3.2678221383     1.6082125862
 F      1.9826410241    -2.5996624001     2.1969722773
 H      3.2000501297    -0.6118333281     5.0237731298
 F      3.0827374395    -0.0949851843     5.7721010853
 H      6.7231929074    -1.8563809147     3.8614023380
 F      6.7818072342    -1.8310027195     2.9466295204
 H      5.6015145297    -2.5151914114     2.0115061504
 F      5.0050932304    -2.9334404634     1.4545156979
 H      4.5644792770     0.0922003175     6.4796556408
 F      5.4471937393     0.0647031617     6.7265322990
 H      2.2658268955    -4.4106311926    -0.3793473240
 F      2.5388981526    -4.4626888327     0.4945011129
 H      2.8966376576    -4.2548218644    -2.3689216366
 F      2.0590907917    -4.2519154156    -1.9955641672
 H      5.6146810341    -3.7999347530     0.1778449132
 F      5.9357876961    -4.2341779377    -0.5632437240
 H      6.2475937780    -1.1835909233     6.0022921661
 F      6.5842958918    -1.8848185495     5.5166992267
 H      5.0896731682    -4.2618378088    -1.9912752378
 F      4.5190908090    -4.2454622127    -2.7089496843
 H      3.1470472866    -1.9431075579     3.1710342743
 F      3.7326357907    -1.5557544098     3.7608924289
