          5
Energy: -0.1820237481361453 Kcal/mole
 He    -5.3923293399     5.2018035125    -3.6121785594
 He    -3.3334386047     6.9032039423    -2.5243145584
 He    -3.8626682783     6.9174176020    -5.3373424905
 He    -3.7093228480     4.2384859762    -1.5203322197
 He    -2.6208215574     4.6242504651    -4.1369326092
