          5
Energy: -0.18198555776655911 Kcal/mole
 He     1.9669190030     1.2403132527     2.9428815604
 He     3.8200501098     0.3173469016     4.9056588149
 He     4.7365296820     2.0162170223     2.7824890500
 He     2.7016717638     3.9200865652     2.1540555536
 He     3.0773336424     3.0782403619     4.8605564276
