          5
Energy: -0.002965371266422141 Kcal/mole
 He    -0.6324189183    -1.8877104337     1.6218517118
 He    -1.6774545096     3.6963933213     3.9863848795
 He     3.6848657464     2.3219174589    -2.6500056669
 He     4.9127412752    -2.7440999959    -2.9894311835
 He     4.5899657014    -3.8657696505     3.0082727059
