          5
Energy: -0.01475474936692478 Kcal/mole
 He     0.8374768869     4.5030161806     1.5371748668
 He     3.4078010334    -7.2664793409    -3.8702064915
 He     2.8417499720     3.5882258323    -0.8408172589
 He    -6.2213498891     6.6363622614     5.1285503911
 He    -3.5585520036    -4.7152593025     3.6632874983
          5
Energy: -0.0019968153563047503 Kcal/mole
 He     1.2565166943     5.9979506227    -2.5473621082
 He    -2.3517587536     2.6862492511     5.2624658230
 He     5.0891731669    -7.0929610230    -0.8993187809
 He    -1.3740963472     1.9099811812    -3.8291332757
 He    -5.4955441547    -1.2888453526    -0.6139637120
          5
Energy: -0.005048590482031113 Kcal/mole
 He    -6.8874945420    -0.5642645032    -1.2203058491
 He    -6.9400137314    -4.4559557523    -3.2904789191
 He     6.9406684483     2.6706667741    -5.0787580291
 He     2.2688049447     1.3580826984    -3.7917872183
 He     1.8810849614     7.0687682032    -5.6667869426
          5
Energy: -0.004433805110967485 Kcal/mole
 He    -0.3905423327     5.5142977761    -5.0120138640
 He    -4.8531087614    -3.4221145667     0.7762675512
 He    -0.2917560585     1.4924649514    -3.7879744112
 He    -6.3741283858     1.7341761595     3.6372251687
 He     2.1399350764    -4.8828152611     7.4929214487
          5
Energy: -2.6265510477775736E-4 Kcal/mole
 He    -5.0751450725    -5.2657657186    -2.3268571450
 He     7.3999512875     0.7417972148     5.0090843291
 He    -6.4429175094     2.4216268625     5.4135442699
 He    -1.3311725199     7.1694342465    -6.2592246060
 He     3.0176938329    -3.4088469108     1.4308365465
          5
Energy: -6.193527355431249E-4 Kcal/mole
 He    -2.0392318399     4.0193708534    -6.4295533608
 He    -4.7677588583     4.0597537745     0.3444574951
 He     3.7771544836     4.9590310773    -4.7579234977
 He     6.3548859529     5.1212203294     7.3731899614
 He    -6.3463196714    -6.3524066532    -6.9001354566
          5
Energy: -0.014073077413314176 Kcal/mole
 He    -0.6573354123    -0.1397844551    -5.3275250099
 He     6.0203913640     2.8854882158    -1.9952660376
 He    -3.0289455718    -6.2989517677     2.0108945134
 He    -2.0087978757     2.7150457510     3.8870346601
 He     0.8579324355     1.3025403110     3.0858144652
          5
Energy: -0.055919120668967794 Kcal/mole
 He    -4.1397407606    -6.8989519188     1.0014658496
 He    -4.0413133942    -5.5495561935     3.7731009177
 He    -7.0059937487     1.7148520796     4.8332191495
 He    -4.4831145476    -1.2887434390     4.2483121134
 He    -6.7009986792    -4.3471229959     3.5705108128
          5
Energy: -0.15787334203044556 Kcal/mole
 He    -5.7743575742    -2.7821551444     2.9642295132
 He    -5.2687572315    -5.5121570719     1.1913007447
 He    -5.3538706896    -5.4102490612     3.9422659495
 He    -5.3209795356    -2.5603637765     0.0531445528
 He    -3.2566288310    -3.4675700931     1.7623957280
          5
Energy: -0.18201319971778582 Kcal/mole
 He    -6.1962701559    -2.9896950444     2.4221585675
 He    -5.3760686127    -5.3707115857     1.0366369307
 He    -4.9884296643    -5.1382542733     3.8601282500
 He    -4.9921637994    -2.7932689127    -0.1658739675
 He    -3.4101357930    -3.5592964762     2.0990913840
