          5
Energy: -0.016285243400749612 Kcal/mole
 He    -0.6594293538     5.3033705867     3.3370278020
 He    -7.1076823041    -3.4929180295    -5.0130723978
 He    -1.8998258374    -2.0371711066     0.5080089749
 He    -5.2275357798     3.6552916771     4.3239385321
 He    -6.4637699855     2.5489094199     1.4951026326
          5
Energy: -8.958689925693509E-4 Kcal/mole
 He     5.4550378747    -5.0374516923     0.8001377139
 He    -3.5360959642    -7.4566306125    -0.1336052732
 He    -6.7680007243    -3.5083542821     4.3122385450
 He     2.3414770687    -0.2794066481    -1.3236674713
 He    -0.0387450994     6.2121339319    -4.1185628534
          5
Energy: -0.0011792615621789302 Kcal/mole
 He     0.7200836563    -2.4619808599    -0.2524346612
 He    -4.1529089901     3.3999323796    -2.9862474083
 He     6.2922112049     1.2521633885    -1.7817128954
 He     4.4132587239     2.0306728244     4.0477652059
 He     2.6356391696    -4.4162481425    -6.5257035897
          5
Energy: -0.0028568227828184058 Kcal/mole
 He    -0.4202233837     6.7613454663    -3.0045854377
 He    -4.4566383994    -2.2863201601     4.8339141919
 He    -0.2177294169    -3.7830651882    -1.4986442597
 He     6.5625011490    -1.3844434420     0.5065389572
 He    -0.9878173108    -5.3059873201     4.8799873763
          5
Energy: -0.022462159763747026 Kcal/mole
 He    -1.3113883549     1.4239958523    -1.1325758808
 He     6.7203298219    -4.5449057649    -1.7646713529
 He     1.8480967727    -6.6632541195     2.7342821984
 He     0.3407893894    -4.7863940981     6.5020753320
 He    -2.2762964087    -1.3846426752    -1.0740661394
          5
Energy: -0.023779752874497136 Kcal/mole
 He     2.5881825866    -5.1928612873     3.5968272976
 He    -6.7774849160     3.6497593885     3.2775461479
 He     1.4701750229    -4.6030129409     0.8952721756
 He    -4.7173751624    -4.2207915659    -1.8805438301
 He    -2.3211097873    -1.6324885630     1.1371059545
          5
Energy: -0.014953889925051584 Kcal/mole
 He     2.7220816227    -2.1730085619     7.1561248853
 He    -3.5240699018     4.1239431791    -5.8318852330
 He     0.5059901293    -1.8687745859     1.8163282936
 He     5.3590072051    -3.0846092447     5.4304676357
 He    -0.7486428727     7.2034707392     6.5326694515
          5
Energy: -5.550936590508024E-4 Kcal/mole
 He     2.2533896359     5.9989483923    -6.9943701988
 He    -5.6233358121    -6.6898537663    -6.5152243394
 He     5.0501801682     3.1637882724    -0.1084145365
 He     0.9618612815    -0.4815646789    -6.0208724191
 He    -6.3106590880    -4.8755984447     1.3882768922
          5
Energy: -0.10491474462779991 Kcal/mole
 He    -3.8405335086    -0.2024616644    -5.7530963191
 He    -2.0963494559     2.0464064173    -4.5487342127
 He    -5.6380734147     0.7972390891    -3.1475712299
 He    -3.1257814195     1.5843951777    -2.1049021853
 He    -4.1825625322     3.7269950146    -5.9758394500
          5
Energy: -0.18205614716111396 Kcal/mole
 He    -4.1884620913     0.4065279360    -5.3363146446
 He    -2.3510431189     2.3539430193    -4.2788865159
 He    -4.8932895287     1.9375493719    -2.9986169422
 He    -2.8599049395    -0.0712825422    -2.8409894782
 He    -4.7610838028     3.1965009530    -5.5763929712
