          5
Energy: -0.18201319971778582 Kcal/mole
 He    -6.1962701559    -2.9896950444     2.4221585675
 He    -5.3760686127    -5.3707115857     1.0366369307
 He    -4.9884296643    -5.1382542733     3.8601282500
 He    -4.9921637994    -2.7932689127    -0.1658739675
 He    -3.4101357930    -3.5592964762     2.0990913840
