          5
Energy: -0.18205614716111396 Kcal/mole
 He    -4.1884620913     0.4065279360    -5.3363146446
 He    -2.3510431189     2.3539430193    -4.2788865159
 He    -4.8932895287     1.9375493719    -2.9986169422
 He    -2.8599049395    -0.0712825422    -2.8409894782
 He    -4.7610838028     3.1965009530    -5.5763929712
