          5
Energy: -4.8455606130928596E-4 Kcal/mole
 He    -7.4761640317    -0.2724713025    -6.6370488925
 He     4.8336164124     1.8337624526    -4.9732173176
 He     6.8019308395    -4.5527622782     4.2798411715
 He     6.2829453415     5.0688764806    -0.0109860346
 He    -3.8305595760     2.5292666202     5.8686497453
          5
Energy: -0.02211237524710473 Kcal/mole
 He    -0.7314094415    -3.1409636036     1.3669509456
 He    -2.5913420285    -0.8275629741    -7.3609909789
 He     0.4231924096    -0.6586726087     0.1119717493
 He     1.6305647038    -4.7169470467     5.2091703710
 He    -2.1753356508     1.0612590106     5.2923765466
          5
Energy: -0.012253724341278024 Kcal/mole
 He     6.2693971272    -0.8523477248     3.9815884579
 He    -3.8443842023    -4.6524703181    -4.0842247407
 He    -1.4286643544     2.2903857850    -5.4853252058
 He    -4.9680371050    -5.7216292287     2.9277875368
 He     6.1759030576    -3.9014853814     5.4699294945
          5
Energy: -0.024991016994460487 Kcal/mole
 He    -0.1950399557     3.8025752536     3.4774434341
 He    -5.2452904338    -6.0059056733    -0.6618982080
 He     0.5181271633     2.0045968059     7.2714372018
 He     3.1389674144     6.7347663077     5.7021352637
 He    -2.2350947586     4.6464197593     1.4453565202
          5
Energy: -0.06589434380269683 Kcal/mole
 He     6.5714566798    -4.2447147242    -1.8672698885
 He     3.5213591089    -5.5051706379     1.5124900856
 He     6.4053233218    -4.6911925892     1.4658414075
 He     6.1041003671    -5.4313190045     4.1480436069
 He     4.9836855149    -1.4970183395     5.5225613339
          5
Energy: -0.025269127769549867 Kcal/mole
 He     0.9228306106    -6.8013417180    -3.9389100130
 He     6.8654704599     0.3149575907    -2.9770621829
 He    -3.6094567155    -4.0815305832     0.7177315810
 He     7.0136986010    -1.9587132144    -5.3388916337
 He    -1.6997688051    -4.6153812574    -4.6753521911
          5
Energy: -0.009859075979002787 Kcal/mole
 He    -3.9022425249    -2.5996742064    -6.2044775466
 He     5.9238144258     1.1881396645     2.5200602504
 He     3.3387944103    -5.8186789061    -2.0308819889
 He    -2.8031691776    -2.0963335594     3.0056748958
 He    -2.5306284375    -1.7365123261    -2.9959467056
          5
Energy: -0.1289702511654386 Kcal/mole
 He     0.2019416524     2.4247043532    -4.3208875792
 He    -1.3575839178     4.9660233601    -3.6186282689
 He    -0.1182208820     4.4356766094    -6.5501715673
 He    -3.7843652192     6.2131594071    -4.6403389610
 He     1.4310284251     4.7792465618    -4.0891876963
          5
Energy: -0.17969695444418388 Kcal/mole
 He    -5.3613929275     5.2795816842    -3.5361245742
 He    -3.2987441720     6.8872216710    -2.5522225524
 He    -3.9096622349     6.8881833417    -5.3996431895
 He    -3.5117288152     4.1424494409    -1.5968887495
 He    -2.5798422248     4.6649010033    -4.1585740753
          5
Energy: -0.1820237481361453 Kcal/mole
 He    -5.3923293399     5.2018035125    -3.6121785594
 He    -3.3334386047     6.9032039423    -2.5243145584
 He    -3.8626682783     6.9174176020    -5.3373424905
 He    -3.7093228480     4.2384859762    -1.5203322197
 He    -2.6208215574     4.6242504651    -4.1369326092
