          2
Energy: -5.787560857854203E-5 Kcal/mole
 He     3.5494404995     4.8870694968     1.0149950053
 He     3.8143705971    -3.1178308658    -1.9192058145
          2
Energy: -9.361817660948007E-6 Kcal/mole
 He     0.4210598165     5.4076333101    -2.2369455575
 He    -3.1230986970    -5.5801140832    -1.7174561315
          2
Energy: -5.664739707912502E-5 Kcal/mole
 He    -5.7640827857     5.8225196670     6.1502588012
 He     1.5188166309     6.0008493368     1.6549070456
          2
Energy: -6.608043169229691E-7 Kcal/mole
 He    -7.0132464104    -6.9342355829    -7.0441588831
 He     6.3741810642     3.3448767945    -0.8548257042
          2
Energy: -6.967384531842705E-6 Kcal/mole
 He     3.5903690263     2.3057503593     6.4935422261
 He     0.3760671073    -2.3417268836    -4.2513550635
          2
Energy: -6.8665179235237104E-6 Kcal/mole
 He     7.4810464130    -5.2270289460    -4.4943527881
 He     5.6628074279     6.4591287916    -7.3630721806
          2
Energy: -1.1135667473908602E-5 Kcal/mole
 He    -2.0166425653    -5.5724112934    -0.4233015718
 He     1.1238899597     3.0340689179     6.0667194922
          2
Energy: -0.0073076416457763995 Kcal/mole
 He     7.3666428584    -2.3061420036    -1.2304250108
 He     5.1422439438    -5.2028732786    -2.0416045787
          2
Energy: -0.006538071508535613 Kcal/mole
 He    -0.5218123628    -0.8075204187    -0.3329417843
 He     0.4798462919    -2.3023400954     3.0363304002
          2
Energy: -0.01999999999091294 Kcal/mole
 He    -0.7045959357    -0.5216154262     0.2425474227
 He     0.0828602968    -1.8731222193     2.6476724306
