          2
Energy: -7.540224715855145E-6 Kcal/mole
 He    -3.6711910120     6.9252913620     3.0951781563
 He     0.0868345412    -4.4250344905     2.3208527856
          2
Energy: -3.0089620718762086E-6 Kcal/mole
 He     3.0179673759     1.3812138576     3.2485388672
 He    -3.3917001242    -4.9618538671    -7.4130469446
          2
Energy: -0.011338051673552063 Kcal/mole
 He    -1.4165834941    -7.2570528752    -5.8535497005
 He     1.7471316456    -5.9299755829    -5.8175874563
          2
Energy: -2.097365479663637E-6 Kcal/mole
 He    -5.4452499700     0.1711017386    -0.5925591872
 He     7.0363466458    -5.9730411479     4.5431103907
          2
Energy: -8.556373003028764E-6 Kcal/mole
 He     7.4069988103    -7.1776846510    -3.7957474401
 He    -1.1491314408    -3.2646148477     3.2119885466
          2
Energy: -1.2922469995003312E-6 Kcal/mole
 He     3.6669756993    -3.3502421158    -7.4811508395
 He    -1.7536214467     5.8522561578     4.5344965281
          2
Energy: -1.5029911404958219E-5 Kcal/mole
 He     0.7008157039     6.3380824693    -5.5354706279
 He     4.8179250792     6.0215211999     4.3139295002
          2
Energy: -0.004445101904160486 Kcal/mole
 He     3.5365910913     3.3696591395     2.9477034763
 He     6.6240252765     1.1548538542     4.4771950424
          2
Energy: -0.001247629214750005 Kcal/mole
 He     2.9759377797    -3.0122756165    -3.2840927240
 He     7.0175671932    -1.7054491934    -6.1067976039
          2
Energy: -0.019999999933287466 Kcal/mole
 He     4.2144619571    -2.9758591915    -3.7648997380
 He     5.6390421230    -2.0118959564    -6.0610762767
