          2
Energy: -0.0013097886840646754 Kcal/mole
 He     2.9405800397    -4.2697230629    -4.2782895718
 He     0.4852797276    -0.1470907057    -5.8784516491
          2
Energy: -5.642663885158952E-4 Kcal/mole
 He    -1.4800872443    -6.6725229378     3.7198611319
 He    -0.8819784594    -4.9609627821    -1.8207313464
          2
Energy: -1.337224119176673E-5 Kcal/mole
 He    -2.1899369609     1.4043784222     5.1156549733
 He     7.1238213990     3.0475351187    -0.2831450630
          2
Energy: -0.018284666635535282 Kcal/mole
 He     3.4399968905    -4.7868799822     6.4438451403
 He     4.9640130442    -2.4180626998     5.3013995233
          2
Energy: -2.0075345489017655E-6 Kcal/mole
 He    -7.2190273369    -7.1052272345    -0.7549522405
 He     6.4702175564    -2.0366364383    -3.9270700957
          2
Energy: -2.0387504405572428E-5 Kcal/mole
 He     1.2931306119    -2.2248552576    -0.2500230153
 He    -6.5203858979    -7.3636506808     3.6969752294
          2
Energy: -4.004469109813039E-5 Kcal/mole
 He     0.8344717607    -1.1226766464     0.3080475318
 He     6.8459858616    -4.3245701073     6.2978356426
          2
Energy: -3.7898469879707108E-6 Kcal/mole
 He     5.4939154224    -6.1016139785    -0.8562331273
 He    -5.9955366813    -1.4858442310     4.3629603591
          2
Energy: -0.017092891285453517 Kcal/mole
 He     6.1587225651    -5.9890559421     6.6255314043
 He     5.4805609550    -2.9936988680     7.1025821793
          2
Energy: -0.019999999997145846 Kcal/mole
 He     6.0768747620    -5.7895809562     6.8025053865
 He     5.3821718948    -3.0081437377     6.9131182255
