          3
Energy: -0.002063064795776153 Kcal/mole
 He    -3.7969886403     3.7809868996    -5.6609486552
 He    -5.6151213224     3.5682264440     6.6185011831
 He     0.8036932599     3.0147673110    -6.1020098294
          3
Energy: -0.007044122938884719 Kcal/mole
 He     6.7571481412     1.8274323811     1.3756140287
 He     6.1812108151    -4.5478617489    -3.3821805406
 He     5.1035244033    -0.9159353670    -1.7076049737
          3
Energy: -0.0059319854909488864 Kcal/mole
 He    -3.2576345267    -4.1580902653    -1.6781976340
 He     3.2580539795     7.4114654928    -0.6120299717
 He    -6.6406509952    -3.5347594117    -3.4928833596
          3
Energy: -2.43959817739574E-5 Kcal/mole
 He    -6.5649098917    -6.8489913470     2.3732899775
 He     0.1988235579     1.1458795207     5.9526677298
 He    -4.8819569857     7.1919138795    -2.2584386056
          3
Energy: -0.019382309981744388 Kcal/mole
 He    -1.9893073597    -5.7426272761     2.4544941589
 He    -0.6487419614    -5.4783180298    -0.2369801667
 He     0.5932860740    -1.6579640957    -4.1915190597
          3
Energy: -0.003218708498461501 Kcal/mole
 He    -3.2726401922     5.8337943480     2.7859296722
 He    -4.1142497371     2.4897349367     0.1555553677
 He     5.6012372018    -4.2464921035    -4.3668860165
          3
Energy: -5.820250066809147E-4 Kcal/mole
 He     3.5239148114    -1.8315785050    -0.3044755480
 He     4.5509931348    -1.3865922491     1.9965016275
 He     3.7655665310     6.3356462347     6.2261404875
          3
Energy: -0.0045139697391683616 Kcal/mole
 He     3.0542962655     2.6537493179    -4.0388596931
 He    -0.0967527071     0.3134156400    -5.1720381470
 He    -6.9426848031    -6.1431865146     5.5810205337
          3
Energy: -0.009511131102999382 Kcal/mole
 He    -3.3049539216     2.7028948728     3.5727581010
 He     6.9666952144    -0.7109935075     5.4059886543
 He    -5.5294904909    -0.0585398212     3.8569626199
          3
Energy: -0.05999963637928976 Kcal/mole
 He    -3.2744695267     0.9425758967     2.3240104213
 He    -1.7296451131    -1.0449775338     0.9434300366
 He    -4.4690792448    -1.5684801789     1.6167440929
