          3
Energy: -4.6313807755664463E-4 Kcal/mole
 He    -2.8177951895    -6.1858929774     7.4337651520
 He    -4.2999843775     1.6825486063     1.0975428247
 He    -5.1838356799    -2.6305318882    -3.1158378281
          3
Energy: 0.005018659520688895 Kcal/mole
 He     2.9556053925     4.2493178744    -1.2466049721
 He     2.5083106579    -1.6683028946    -1.5681737932
 He     3.6978648345     0.0702485840    -2.9501214103
          3
Energy: -2.2428235322659995E-5 Kcal/mole
 He    -6.0565916728    -1.8613193767    -7.0057492843
 He     0.2754942555    -4.5023082424     3.5490250329
 He    -5.0826935582     5.6996009475     2.1882112322
          3
Energy: -1.2173051047549756E-5 Kcal/mole
 He     6.7757461451    -1.0299794680    -6.9642239027
 He     3.1766190107    -3.5366076812     4.4695024664
 He    -4.2097313281     6.4993894390     7.2476601752
          3
Energy: -2.1378606164874835E-4 Kcal/mole
 He     3.2333479756     3.7909204485    -4.8090543413
 He    -4.5931645584     0.6590529730     7.1786055510
 He     0.5808613899    -2.5427276659     3.8416846419
          3
Energy: -1.3104258486707632E-4 Kcal/mole
 He     5.6734340779     6.5302528036     3.3468765350
 He     0.7449012545    -4.9259462689     4.5076891112
 He    -3.8686499210     0.4406888294     1.7281319379
          3
Energy: -3.229258059064764E-5 Kcal/mole
 He    -6.9858666494    -1.0789542502     1.4294091951
 He    -1.0391538469     3.9703718650    -6.7235319941
 He     5.4886498892    -3.8596811950    -5.6094210887
          3
Energy: -3.222837534457017E-4 Kcal/mole
 He    -4.2083789143    -7.0682575243     1.9055384475
 He    -5.8809147623     6.4460668763     0.2644270545
 He    -0.1239537728     7.0318730427    -2.5168713021
          3
Energy: -1.1415502758482335E-4 Kcal/mole
 He    -4.3705609240    -5.1892939423    -4.0698618453
 He     1.6001424989     5.0285815102     5.7971766106
 He     1.3656985304    -2.6724566107     4.3155977277
          3
Energy: -0.05999835917971422 Kcal/mole
 He    -0.8817385675    -0.2486275742     0.8723509802
 He     0.7469803205     1.3913786813     2.5672694471
 He    -0.1150227442    -1.1941118179     3.4668871510
