          2
Energy: -0.027454577683098225 Kcal/mole
 Kr    -0.9651263166    -6.3151040314     4.8480427784
 Kr     1.2034529008    -3.1965460035    -0.8389704785
          2
Energy: -0.008868552589838182 Kcal/mole
 Kr     6.2590754292     4.7249003549    -3.7309824028
 Kr    -0.1710675504     5.0690404332     1.4698047266
          2
Energy: -0.0023596386426745115 Kcal/mole
 Kr     6.0676098903     2.7302997236    -5.3321221519
 Kr    -4.0163791302     0.5283488435    -5.7476945308
          2
Energy: -0.06730317917734627 Kcal/mole
 Kr     3.8633569129     5.1932463830    -4.9596830346
 Kr     3.0420869634    -0.1517693470    -2.7157930746
          2
Energy: -4.315909182310487E-4 Kcal/mole
 Kr    -6.2001779234    -3.8533425288     3.3410703409
 Kr     1.5174354177     1.9502455928    -6.3973514513
          2
Energy: -0.01517105046750412 Kcal/mole
 Kr    -7.1482130255    -2.3207475260    -6.2394016878
 Kr     0.1615611928    -3.1734204917    -4.4989151463
          2
Energy: -0.3164929263555518 Kcal/mole
 Kr     3.6017147280     6.8209719212    -2.8248459216
 Kr     3.3893163734     5.3566737516     0.9941075071
          2
Energy: -0.31175854732938857 Kcal/mole
 Kr     2.9277027854     5.8069902433    -1.5948018209
 Kr     2.8371601841     4.7418501873     2.4277783980
          2
Energy: -0.3107037222713993 Kcal/mole
 Kr     0.8076476961    -5.1374485123    -3.9215609511
 Kr     4.4232727538    -5.1786390706    -5.5832178604
          2
Energy: -0.3169999999492696 Kcal/mole
 Kr     1.1035255594    -5.0188735032    -3.2455662623
 Kr     4.2643007608    -5.0487620858    -5.8059617633
