          2
Energy: -0.04024866472637835 Kcal/mole
 Kr     6.8891993260    -2.9765481031     4.1063234515
 Kr     4.2537565858     2.0721028457     1.1761146939
          2
Energy: -0.2556383174834783 Kcal/mole
 Kr     6.8526211577    -0.3049319341    -4.0540745240
 Kr     6.6973041161     1.4258577156    -7.4648736393
          2
Energy: -0.31228876004456607 Kcal/mole
 Kr    -2.3180697060     4.4038206348    -0.3322903174
 Kr     0.7634603986     1.8321218143    -1.4141347940
          2
Energy: -0.14323023429163745 Kcal/mole
 Kr     5.2630437707     2.8103798167     2.8609318881
 Kr     0.5135767864     2.9575259865     1.0280926424
          2
Energy: -0.3152354422423325 Kcal/mole
 Kr    -1.4847512654    -4.7240643362     3.3750178455
 Kr     0.1330729315    -2.2726318105     0.6313024273
          2
Energy: -0.26938649923622104 Kcal/mole
 Kr     1.5649632425    -5.7994298091    -6.8787422338
 Kr    -1.3495875498    -5.3132389142    -3.5994291516
          2
Energy: -0.23491526765920356 Kcal/mole
 Kr    -3.5014223349    -6.5089703602    -1.3324324535
 Kr    -1.2387523057    -5.9249439667     1.6619000344
          2
Energy: -0.28909165251005275 Kcal/mole
 Kr    -3.0605140746     5.5426157897     2.1927441135
 Kr    -4.5685283349     2.6664578177     4.3439719096
          2
Energy: -0.3167490742188895 Kcal/mole
 Kr     2.3641878345    -6.6635400290    -1.8679357973
 Kr    -0.3116150879    -7.1848365926     1.1773069541
          2
Energy: -0.3169999999377442 Kcal/mole
 Kr     2.1529182522    -6.6495541320    -2.0246961752
 Kr    -0.3579793289    -7.1268159775     1.1398993181
