          4
Energy: -6.327436574434444 Kcal/mole
 H      4.4764929649     1.1052291667    -3.1507477730
 F      4.4166441038     1.7168111893    -3.8313905159
 H      3.1606489117     2.8370923827    -3.6401550895
 F      2.4473275666     3.3470409418    -3.3718006115
          4
Energy: -6.326890981432257 Kcal/mole
 H      4.4640789778     1.0413142424    -3.2166934328
 F      4.4338829614     1.7408044948    -3.8088847764
 H      3.1450298512     2.8249812563    -3.5924918546
 F      2.4094138873     3.3097730199    -3.3380609217
          4
Energy: -6.3265630758297675 Kcal/mole
 H      4.6882263850     1.2599512527    -3.1082309270
 F      4.4172064885     1.7394044407    -3.8414170263
 H      3.0756979733     2.7373913149    -3.5678444653
 F      2.3500585240     3.1969631902    -3.2467057396
          4
Energy: -6.3249419674395995 Kcal/mole
 H      4.2539588149     0.8326227984    -3.4437330911
 F      4.3965167437     1.6593602139    -3.8139647519
 H      3.1663259900     2.7884930792    -3.5000148140
 F      2.4108702711     3.2358662549    -3.2353775178
          4
Energy: -6.327056666304429 Kcal/mole
 H      4.0959743455     0.7521474129    -3.7463476048
 F      4.3569469073     1.6279746989    -3.8219047832
 H      3.1714982439     2.7860793762    -3.4624499821
 F      2.4234946850     3.2634070576    -3.2310672678
          4
Energy: -6.326386435093752 Kcal/mole
 H      4.0777274875     1.1064431782    -4.6190655084
 F      4.2968987439     1.5466261532    -3.8450552314
 H      3.1943979886     2.7380692354    -3.3395908874
 F      2.4979878022     3.3232072400    -3.2233352732
          4
Energy: -6.327126497072072 Kcal/mole
 H      4.0914370574     0.7541377901    -3.6219905371
 F      4.3029235303     1.6004212814    -3.9047744195
 H      3.1894685020     2.8076776062    -3.4984212121
 F      2.4941058955     3.3242264843    -3.1975273736
          4
Energy: -6.326868492337837 Kcal/mole
 H      4.5373904405     1.0335187647    -3.3027920205
 F      4.3570043565     1.6535285696    -3.9538970063
 H      3.1756379149     2.7883334617    -3.5066503410
 F      2.5382639333     3.3050627010    -3.0972186608
          4
Energy: -6.326382472362582 Kcal/mole
 H      4.1535896431     0.7988220616    -3.8174882974
 F      4.3734807889     1.6766181359    -3.9658491279
 H      3.2321956671     2.8233233480    -3.4355702822
 F      2.5257286226     3.2925123227    -3.0867794838
          4
Energy: -6.327490853144923 Kcal/mole
 H      4.0468575413     0.8717215228    -4.0926248741
 F      4.4070541954     1.6901191102    -3.8892219257
 H      3.2856036378     2.8363422491    -3.3405748738
 F      2.5537253698     3.3212251746    -3.0757508767
          4
Energy: -6.326726590262638 Kcal/mole
 H      4.0430417605     1.1074015245    -4.5370726013
 F      4.3870426532     1.6669947312    -3.8972227525
 H      3.2611886524     2.7818576855    -3.3004106332
 F      2.5302614152     3.2966640057    -3.0964282155
          4
Energy: -6.327811681560775 Kcal/mole
 H      4.1339015974     1.0153274581    -4.2720563276
 F      4.4545891613     1.8177054816    -3.9650742536
 H      3.2905400872     2.8663432422    -3.3160448120
 F      2.5447350185     3.3001894070    -3.0054948085
          4
Energy: -6.3266710134986965 Kcal/mole
 H      4.1729642451     1.2022938785    -4.5402930534
 F      4.4789859615     1.7726675519    -3.8907443010
 H      3.3285607563     2.8306522467    -3.2203630012
 F      2.5904006928     3.3152750126    -2.9730787610
          4
Energy: -6.327522171385397 Kcal/mole
 H      4.1316622755     1.1260169333    -4.4364471468
 F      4.4607171797     1.7721646958    -3.8751050594
 H      3.3009811560     2.8224877566    -3.2106783520
 F      2.5546298671     3.2880437177    -2.9516293205
          4
Energy: -6.326642034543397 Kcal/mole
 H      4.1039084743     1.1787252642    -4.5438297101
 F      4.4197202383     1.7177540800    -3.8725623524
 H      3.3077316553     2.8284211399    -3.2294596387
 F      2.5989208134     3.3649392029    -3.0044606200
          4
Energy: -6.326974733359236 Kcal/mole
 H      4.0723601521     0.9022097169    -4.1075868935
 F      4.4201141968     1.7215065704    -3.8868862132
 H      3.3108914031     2.8534587321    -3.2699312483
 F      2.5920856123     3.3339459229    -2.9644164458
          4
Energy: -6.327152188726586 Kcal/mole
 H      4.1988333371     1.5040190963    -4.8248136249
 F      4.3836498782     1.7111496001    -3.9508406273
 H      3.2401726644     2.7083871594    -3.2036714178
 F      2.5323986743     3.2363965737    -2.9563840600
          4
Energy: -6.327406843781205 Kcal/mole
 H      4.2577573267     1.5558176768    -4.8308002033
 F      4.3868602689     1.7010296912    -3.9346222627
 H      3.2384074988     2.7089267256    -3.2026150803
 F      2.5457942182     3.2618407582    -2.9671115427
          4
Energy: -6.3256735387747085 Kcal/mole
 H      4.2814125024     1.5723346642    -4.7545142458
 F      4.4086510001     1.6850494582    -3.8534067384
 H      3.2732351663     2.7145204997    -3.1273966531
 F      2.5913999587     3.2937912186    -2.9263116366
          4
Energy: -6.327223058538266 Kcal/mole
 H      4.2289191916     1.4339682774    -4.6249387454
 F      4.4391480823     1.6974319255    -3.7721317804
 H      3.3693539636     2.8365304606    -3.1145764840
 F      2.7081913385     3.4433791023    -2.9261946664
          4
Energy: -6.327429186544521 Kcal/mole
 H      4.5050907173     1.6846435962    -4.6473666890
 F      4.4135079043     1.6634996071    -3.7351964636
 H      3.3636914889     2.8242742072    -3.0819276316
 F      2.7766701414     3.5073172742    -2.9094541373
          4
Energy: -6.327152402749391 Kcal/mole
 H      4.3407416996     1.5463269640    -4.6564202892
 F      4.4163542391     1.6716917175    -3.7511825179
 H      3.4146760700     2.8742663248    -3.1120311261
 F      2.8129945042     3.5426761960    -2.9328760609
          4
Energy: -6.3277986769256245 Kcal/mole
 H      4.5997702851     1.7700831953    -4.6462828211
 F      4.4368947583     1.6804219021    -3.7483288048
 H      3.4214226873     2.8681576780    -3.0830897587
 F      2.8718008717     3.5786968542    -2.8988645190
          4
Energy: -6.327025709729924 Kcal/mole
 H      4.2899773921     1.5064277759    -4.5966126649
 F      4.4623327230     1.7041191703    -3.7179200266
 H      3.4454333320     2.8879932665    -3.0654296057
 F      2.8194626686     3.5347198203    -2.8899460078
          4
Energy: -6.327066118026721 Kcal/mole
 H      4.2970758227     1.5397738407    -4.6225630978
 F      4.4846993323     1.7279138598    -3.7449015731
 H      3.5044783760     2.9414344123    -3.0733165330
 F      2.8894792389     3.5965267511    -2.8902343409
          4
Energy: -6.327376869490138 Kcal/mole
 H      4.0719971816     1.0156941768    -3.9578082553
 F      4.5228945325     1.8020970702    -3.8194208705
 H      3.5570618234     3.0563648564    -3.2183643075
 F      2.8974795246     3.6109996695    -2.9049629430
          4
Energy: -6.327609226205311 Kcal/mole
 H      4.3696940277     1.5694884179    -4.6376486384
 F      4.5517070372     1.8018967032    -3.7694627981
 H      3.5387849699     2.9985318136    -3.1276529913
 F      2.9135417096     3.6461141660    -2.9527331175
          4
Energy: -6.327085052953123 Kcal/mole
 H      4.8703076185     2.0420139787    -4.6397404834
 F      4.5012530377     1.7783522316    -3.8427648254
 H      3.4227331303     2.9050271082    -3.1704758198
 F      2.8819124735     3.6184535835    -2.9719193253
          4
Energy: -6.325823065744942 Kcal/mole
 H      4.4982946420     1.7257874382    -4.7330967916
 F      4.5341835707     1.8231937734    -3.8219914241
 H      3.4967478687     2.9789742756    -3.1489673509
 F      2.8920397812     3.6377722571    -2.9459837348
          4
Energy: -6.325250023304704 Kcal/mole
 H      4.8814678644     1.9776396949    -4.6138448371
 F      4.4829286284     1.7832768145    -3.8111751989
 H      3.4073686820     2.9369773523    -3.1875862588
 F      2.8718449341     3.6547678260    -2.9904057545
          4
Energy: -6.32671454251232 Kcal/mole
 H      4.9328429830     2.0324893493    -4.6113275838
 F      4.4411401990     1.7762417887    -3.8809478470
 H      3.3758630547     2.9424800691    -3.2527964576
 F      2.8679662346     3.6759344424    -3.0407245299
          4
Energy: -6.327628948179665 Kcal/mole
 H      4.8055419813     1.9802194589    -4.6431850972
 F      4.4033926400     1.7502529261    -3.8518063630
 H      3.3939493633     2.9431162246    -3.2041286546
 F      2.8973284342     3.6876730396    -3.0043993327
          4
Energy: -6.325774486282796 Kcal/mole
 H      4.4172102531     1.6696489817    -4.7220333189
 F      4.4499740914     1.7582706539    -3.8099139571
 H      3.4417455200     2.9823238155    -3.1819109224
 F      2.8534406032     3.6681471675    -3.0256014388
          4
Energy: -6.327964821310161 Kcal/mole
 H      4.8084861228     1.8946688078    -4.6062335885
 F      4.3772666382     1.7105268493    -3.8181787077
 H      3.4072100956     2.9676293018    -3.2207504033
 F      2.9407221072     3.7384798450    -3.0502587708
          4
Energy: -6.325162143344073 Kcal/mole
 H      4.4471527600     1.6325494583    -4.6993139309
 F      4.3752818607     1.6941855442    -3.7872149414
 H      3.4515024227     2.9837552817    -3.1981702296
 F      2.9325616222     3.7278280771    -3.0642108299
          4
Energy: -6.32616383753782 Kcal/mole
 H      4.2881513624     1.5159522820    -4.7131095845
 F      4.3755208325     1.6870703128    -3.8164635031
 H      3.4515470210     2.9913391812    -3.2455102198
 F      2.8891449070     3.7012048096    -3.1016920992
          4
Energy: -6.327515738529428 Kcal/mole
 H      4.2999408916     1.5245765707    -4.7356318100
 F      4.3856285613     1.7061271685    -3.8408770929
 H      3.4967898132     3.0401956168    -3.2770578033
 F      2.9648145744     3.7756172817    -3.1464962468
          4
Energy: -6.326181529198777 Kcal/mole
 H      4.2998280539     1.5360525583    -4.7429815244
 F      4.3013506557     1.6492758771    -3.8329995676
 H      3.4505805054     3.0071621642    -3.2657406997
 F      2.9672658714     3.7773696300    -3.1470965930
          4
Energy: -6.327679437214158 Kcal/mole
 H      4.9192707209     1.8557720901    -4.4855240482
 F      4.2833607438     1.6403746373    -3.8609350327
 H      3.3632214831     2.9568562033    -3.3250361792
 F      2.9721571933     3.7685469995    -3.1544027342
          4
Energy: -6.326681583094398 Kcal/mole
 H      5.2105517201     1.7850229915    -3.8397785112
 F      4.3038397010     1.6602433218    -3.8962793818
 H      3.3558057213     2.9911338520    -3.4582609405
 F      3.0016705342     3.7967859941    -3.2005752886
          4
Energy: -6.327629614799321 Kcal/mole
 H      5.0880477237     1.8626440196    -4.3038295128
 F      4.2989658444     1.6550064853    -3.8853495942
 H      3.3670683644     2.9824482155    -3.3834096072
 F      2.9976629055     3.7986369365    -3.1877962675
          4
Energy: -6.326173484723256 Kcal/mole
 H      4.8539629338     1.8070524418    -4.5664519901
 F      4.2923137167     1.6452543181    -3.8598682908
 H      3.3562989109     2.9611730647    -3.3321091920
 F      2.9370994544     3.7644847132    -3.1912148664
          4
Energy: -6.3272695189465935 Kcal/mole
 H      4.8122099561     1.8244985243    -4.6206202937
 F      4.3081066779     1.6621989280    -3.8720030845
 H      3.3698651921     2.9681592390    -3.3306999832
 F      2.9363797946     3.7641141128    -3.1912896217
          4
Energy: -6.326513003795014 Kcal/mole
 H      5.2123960576     1.8107519959    -3.8045726998
 F      4.3121594930     1.6675297111    -3.9043249169
 H      3.3148445557     2.9728222631    -3.4568176451
 F      2.9392985122     3.7638667502    -3.1845993712
          4
Energy: -6.325905339555391 Kcal/mole
 H      5.0815329068     1.6262939960    -3.4016493471
 F      4.2986131495     1.6645005359    -3.8775336963
 H      3.3064272245     2.9844024638    -3.5078423641
 F      2.9134173886     3.7430186096    -3.1747750852
          4
Energy: -6.327737201531136 Kcal/mole
 H      5.0068166397     1.5486921964    -3.3909688916
 F      4.2551878225     1.6516737661    -3.9060785086
 H      3.3095905733     2.9960587477    -3.4999211464
 F      2.9278027333     3.7521108675    -3.1484780679
          4
Energy: -6.327865777429906 Kcal/mole
 H      5.1658883469     1.7823327145    -3.7627658011
 F      4.2676721199     1.6513327258    -3.8929027002
 H      3.2903458516     2.9629527511    -3.4424645353
 F      2.9288236213     3.7538670641    -3.1515260084
          4
Energy: -6.327694431631073 Kcal/mole
 H      5.0196594590     1.5415579559    -3.3748350453
 F      4.2776134024     1.6621552599    -3.8999187911
 H      3.3224772257     2.9909278376    -3.4672724243
 F      2.9331388820     3.7337692469    -3.0964742383
          4
Energy: -6.326886640865098 Kcal/mole
 H      5.0964594650     1.6574670743    -3.5000653611
 F      4.2695934850     1.6604634597    -3.8965154497
 H      3.2868672459     2.9715809088    -3.4504063127
 F      2.9132592353     3.7359017716    -3.1081787963
          4
Energy: -6.325789628467646 Kcal/mole
 H      5.1375465388     1.7460524054    -3.6274837463
 F      4.2719040802     1.6670566688    -3.9195655971
 H      3.2867807817     2.9645217257    -3.4445767370
 F      2.9223948633     3.7364788548    -3.1096228695
          4
Energy: -6.326446911289793 Kcal/mole
 H      5.1755955809     1.7751769422    -3.7067300510
 F      4.2856612690     1.6787215294    -3.9057332516
 H      3.2882465085     2.9515172695    -3.4079745235
 F      2.9090971671     3.7203377938    -3.0823216739
          4
Energy: -6.32657684736472 Kcal/mole
 H      5.1684938236     1.8744973295    -3.9981693988
 F      4.2913794826     1.6529613818    -3.8482318895
 H      3.2893580031     2.9243061621    -3.3306998039
 F      2.8932021177     3.7098975944    -3.0722513256
          4
Energy: -6.3272169193464265 Kcal/mole
 H      5.1773987627     1.8576989989    -3.8763334188
 F      4.2857652894     1.6483865756    -3.8308685007
 H      3.2801338061     2.9221965353    -3.3347872625
 F      2.8907586700     3.7020402121    -3.0499718080
          4
Energy: -6.327883100504266 Kcal/mole
 H      5.1842476904     1.8687383785    -3.8455670050
 F      4.2894895090     1.6682259324    -3.8551354869
 H      3.2749113578     2.9303680598    -3.3503798285
 F      2.8863361136     3.7082453154    -3.0591664105
          4
Energy: -6.325760640266992 Kcal/mole
 H      5.1869365464     1.8230177388    -3.6538438261
 F      4.3045480824     1.6890078594    -3.8643692422
 H      3.2700598483     2.9305350878    -3.3799678336
 F      2.8580988345     3.6857746903    -3.0624930064
          4
Energy: -6.327384397638355 Kcal/mole
 H      5.2061922068     1.8255842232    -3.6275314417
 F      4.3219085320     1.6812724347    -3.8227377176
 H      3.2901633157     2.9651252943    -3.4093302622
 F      2.8904949767     3.7375810965    -3.1186994782
          4
Energy: -6.327679283429177 Kcal/mole
 H      5.1500708626     1.7184251520    -3.4342811581
 F      4.3248856396     1.6869569758    -3.8329891986
 H      3.2953704014     2.9724170135    -3.4448589400
 F      2.8761659684     3.7255350826    -3.1318576343
          4
Energy: -6.327646056681829 Kcal/mole
 H      5.1637981034     1.7473882139    -3.4957972559
 F      4.3094492697     1.6728714625    -3.8204883770
 H      3.2801917902     2.9608227129    -3.4396630720
 F      2.8680822893     3.7256190200    -3.1461645746
          4
Energy: -6.327568324124911 Kcal/mole
 H      5.1104902291     1.7064499379    -3.4390278195
 F      4.2959626848     1.6749160615    -3.8590748338
 H      3.2638081605     2.9629891978    -3.4672099085
 F      2.8485580116     3.7136789241    -3.1432944122
          4
Energy: -6.327836479121572 Kcal/mole
 H      5.1489273933     1.7530489865    -3.5326130674
 F      4.2939236821     1.6724440897    -3.8541103526
 H      3.2564848759     2.9514621026    -3.4490439681
 F      2.8489464949     3.7142904099    -3.1442580734
          4
Energy: -6.326476444566481 Kcal/mole
 H      5.1729119962     1.7968437936    -3.6060599149
 F      4.2993825412     1.6729122010    -3.8560124136
 H      3.2731020167     2.9504992837    -3.4261434074
 F      2.8807024758     3.7250660107    -3.1312570129
          4
Energy: -6.3273239402223 Kcal/mole
 H      5.1870120537     1.9271544536    -3.9214091190
 F      4.3066425973     1.6812536162    -3.8481192951
 H      3.2703416401     2.9469144798    -3.4056895764
 F      2.8707637717     3.7386529372    -3.1725013644
          4
Energy: -6.327646041369917 Kcal/mole
 H      5.1615039983     1.9405576959    -4.1000386735
 F      4.3295738711     1.6830179355    -3.8128896958
 H      3.2886733338     2.9459963278    -3.3670236431
 F      2.8697913177     3.7387016430    -3.1745525028
          4
Energy: -6.327859283537293 Kcal/mole
 H      5.1829152253     1.9463362953    -4.0202472295
 F      4.3284380550     1.6827113942    -3.8171224475
 H      3.2841223293     2.9466490290    -3.3791558753
 F      2.8700327380     3.7386670187    -3.1739089159
          4
Energy: -6.327182781742522 Kcal/mole
 H      5.2168604081     1.8840586894    -3.7336296647
 F      4.3260470641     1.6882567147    -3.8285094455
 H      3.2905588246     2.9608522893    -3.4194278384
 F      2.8885365975     3.7416547389    -3.1555819296
          4
Energy: -6.327727878686858 Kcal/mole
 H      5.1478944715     1.7183720498    -3.4331264990
 F      4.3231819890     1.6840679418    -3.8325780595
 H      3.2975713595     2.9802633987    -3.4617601964
 F      2.8881645987     3.7406250244    -3.1533362958
          4
Energy: -6.327206205140328 Kcal/mole
 H      5.0150154415     1.5792044307    -3.2431874733
 F      4.3302309145     1.6914504624    -3.8426538859
 H      3.3211287410     3.0090153861    -3.4973186570
 F      2.8934446395     3.7438529305    -3.1538232529
          4
Energy: -6.327108714545545 Kcal/mole
 H      4.7941228006     1.3510185390    -3.1213342291
 F      4.3398456400     1.6886709161    -3.8427994976
 H      3.3736664225     3.0312520500    -3.4982367575
 F      2.9151890978     3.7375559146    -3.1351632200
          4
Energy: -6.327638608328243 Kcal/mole
 H      4.6418701574     1.2373187235    -3.0942292940
 F      4.3457579566     1.6880760742    -3.8358655764
 H      3.3949003135     3.0517392276    -3.5004330787
 F      2.9046079348     3.7367303878    -3.1380941573
          4
Energy: -6.3278971723150335 Kcal/mole
 H      4.7448073043     1.3059485865    -3.0864513238
 F      4.3534365581     1.6881342590    -3.8224214663
 H      3.3837777508     3.0402453644    -3.4933090736
 F      2.9051979611     3.7373401106    -3.1384720693
          4
Energy: -6.327831860236699 Kcal/mole
 H      4.5964812140     1.2035987682    -3.0839632467
 F      4.3613049144     1.6935636803    -3.8225534531
 H      3.4077141681     3.0570355081    -3.4927413793
 F      2.9039281894     3.7364494323    -3.1385021842
          4
Energy: -6.327930448550148 Kcal/mole
 H      4.6612593443     1.2478118341    -3.0796575305
 F      4.3578685843     1.6912182793    -3.8227818614
 H      3.3955196644     3.0486114639    -3.4935994369
 F      2.9045750797     3.7368963084    -3.1384566662
          4
Energy: -6.327809925138695 Kcal/mole
 H      4.7775607474     1.3229706023    -3.0960703197
 F      4.3516990636     1.6872312804    -3.8219112008
 H      3.3905105693     3.0424646718    -3.4776880340
 F      2.9266354641     3.7438641750    -3.1119728119
          4
Energy: -6.327727297017475 Kcal/mole
 H      4.6146489992     1.2036359946    -3.0899845453
 F      4.3603411554     1.6935617055    -3.8222340371
 H      3.4187654631     3.0588838093    -3.4784904917
 F      2.9297514709     3.7472876843    -3.1209231269
          4
Energy: -6.32792442768482 Kcal/mole
 H      4.8365922324     1.3698468284    -3.1114742119
 F      4.3485675797     1.6847446049    -3.8210940599
 H      3.3833942964     3.0341621175    -3.4765213799
 F      2.9316278295     3.7485991129    -3.1210275837
          4
Energy: -6.327684326285464 Kcal/mole
 H      4.9347659092     1.4412097435    -3.1600003128
 F      4.3433596930     1.6809589671    -3.8185198624
 H      3.3651976543     3.0234147767    -3.4691316962
 F      2.9291179697     3.7520956640    -3.1230859286
          4
Energy: -6.327695383073888 Kcal/mole
 H      4.9937154228     1.5027958561    -3.1974527353
 F      4.3402325575     1.6776919662    -3.8165330980
 H      3.3530683774     3.0137632012    -3.4636823247
 F      2.9297613998     3.7526076577    -3.1233750051
          4
Energy: -6.327942686026461 Kcal/mole
 H      5.0090336341     1.5164366648    -3.2102659784
 F      4.3394199618     1.6769683528    -3.8158533850
 H      3.3575452733     3.0136420264    -3.4617396951
 F      2.9347283975     3.7523635799    -3.1205574036
          4
Energy: -6.327701086968716 Kcal/mole
 H      4.9824774455     1.4864450660    -3.1905844237
 F      4.3408287063     1.6785593378    -3.8168974460
 H      3.3636084847     3.0166077732    -3.4605747194
 F      2.9344067581     3.7522062539    -3.1206192029
          4
Energy: -6.327918540165626 Kcal/mole
 H      4.9247660797     1.4456200947    -3.1495959879
 F      4.3438901609     1.6807250082    -3.8190717878
 H      3.3703242247     3.0254208174    -3.4708131752
 F      2.9340505037     3.7517387422    -3.1200760765
          4
Energy: -6.327951826606977 Kcal/mole
 H      4.8754359874     1.4028276868    -3.1256279119
 F      4.3465070083     1.6829950466    -3.8203432389
 H      3.3782130754     3.0321967745    -3.4748455326
 F      2.9336320184     3.7513792934    -3.1198621692
          4
Energy: -6.327981039584074 Kcal/mole
 H      4.9005714085     1.4200946956    -3.1386345470
 F      4.3451736323     1.6820790716    -3.8196532669
 H      3.3741434141     3.0288682411    -3.4731536514
 F      2.9338479045     3.7515558644    -3.1199519196
          4
Energy: -6.327888202576503 Kcal/mole
 H      4.9023919592     1.4275359172    -3.1373034216
 F      4.3450770562     1.6816843320    -3.8197238801
 H      3.3740203602     3.0289878491    -3.4735514991
 F      2.9338544322     3.7515495194    -3.1199308147
          4
Energy: -6.327983655968978 Kcal/mole
 H      4.8722272112     1.3962518692    -3.1258774189
 F      4.3466772264     1.6833438785    -3.8203300031
 H      3.3784753603     3.0321187591    -3.4743585281
 F      2.9336181047     3.7513834319    -3.1198880037
          4
Energy: -6.327988938573128 Kcal/mole
 H      4.8753493578     1.4001288041    -3.1266566993
 F      4.3465116038     1.6831382160    -3.8202886641
 H      3.3777965598     3.0319424730    -3.4748516184
 F      2.9336541135     3.7513927835    -3.1198618464
