          4
Energy: -6.326199964734599 Kcal/mole
 H      4.5962994355     0.5212996053    -2.8227267444
 F      4.3130788885     1.3438052200    -2.5326239427
 H      2.9947490175     2.0113050865    -3.3792632921
 F      2.2942696867     2.2239461120    -3.9315327024
          4
Energy: -6.325637745786992 Kcal/mole
 H      4.5889867246     0.4594499611    -3.3447889263
 F      4.0549072330     0.8294693379    -2.6976925212
 H      2.7360514159     1.7202119302    -3.2869049087
 F      2.0906278740     2.1680306135    -3.7599544606
          4
Energy: -6.322440462137763 Kcal/mole
 H      4.3690626707     0.2737800782    -3.0584456398
 F      4.2471963491     1.1627503159    -2.8693173339
 H      2.9295086541     1.9492601323    -3.5965447856
 F      2.1960601320     2.2226513834    -4.0742470874
          4
Energy: -6.321289836692927 Kcal/mole
 H      4.7356307851     0.8138455653    -3.6188754566
 F      4.1956353981     1.1077868636    -2.9385134243
 H      2.8041424821     1.9344841265    -3.4085465761
 F      2.0897598911     2.3389224973    -3.8171736896
          4
Energy: -6.322872997400282 Kcal/mole
 H      4.6306787109     0.6786706664    -3.8145325247
 F      4.0943669606     0.8620842656    -3.0936870779
 H      2.7740953239     1.8377689385    -3.5113259822
 F      2.1361341862     2.3614699260    -3.9108655453
          4
Energy: -6.327396692498041 Kcal/mole
 H      4.5311091512     0.5719810382    -4.2507352658
 F      4.2183878177     0.8600916993    -3.4382781195
 H      2.8519651716     1.8621138744    -3.4992806426
 F      2.1320686149     2.3870253781    -3.7163194889
          4
Energy: -6.320038366977087 Kcal/mole
 H      4.6932195743     1.0038443739    -3.0700129710
 F      4.1907270724     0.7481104681    -3.7931937609
 H      2.7371647860     1.6094755878    -3.9297812386
 F      2.0032578357     2.1476831610    -3.8175217340
          4
Energy: -6.319333696636136 Kcal/mole
 H      4.8349374369     1.7165217170    -3.8275603559
 F      4.2242944671     1.0752589454    -3.5892617592
 H      2.6218438847     1.5958909231    -3.8093019487
 F      1.8363897454     2.0263924113    -4.0058197945
          4
Energy: -6.325489430170535 Kcal/mole
 H      4.8658898143     1.8601749843    -3.0849406476
 F      4.2814183823     1.2029672113    -3.3444788688
 H      2.7133082155     1.7802238601    -3.6530329117
 F      1.9478212292     2.2734291167    -3.7610479506
          4
Energy: -6.3232881283728375 Kcal/mole
 H      4.8619186490     1.5472849787    -4.2821580211
 F      4.2602112959     1.1031805810    -3.7514900033
 H      2.7480075692     1.8585172390    -3.7152342146
 F      2.0170767215     2.3996945642    -3.8325210363
          4
Energy: -6.319335361858805 Kcal/mole
 H      4.8567415683     1.5478050120    -2.7847824652
 F      4.4076689574     1.3591642738    -3.5617235582
 H      2.9276922740     2.1580147646    -3.7904817879
 F      2.1466613259     2.6382438706    -3.7743676986
          4
Energy: -6.325712803834222 Kcal/mole
 H      5.1956868579     2.0857639743    -3.8683257551
 F      4.4827422755     1.5090610031    -3.8718902351
 H      2.9510311980     2.2262031511    -3.7941711893
 F      2.2038946085     2.7563231344    -3.7535667583
          4
Energy: -6.325845895031932 Kcal/mole
 H      5.1708988502     2.2844866306    -3.6386632261
 F      4.5276169345     1.6987236239    -3.9284201535
 H      2.9483533134     2.3263605655    -3.8950900172
 F      2.1912957286     2.8358456298    -3.8046589239
          4
Energy: -6.321576547294569 Kcal/mole
 H      5.2138117193     2.2465961511    -3.4182694528
 F      4.5498627666     1.6479380278    -3.6223999005
 H      3.0375702462     2.3902371031    -3.7655592010
 F      2.3318743529     2.9748160829    -3.7994667613
          4
Energy: -6.3243248242339405 Kcal/mole
 H      5.1101408035     1.9676315037    -4.1357275576
 F      4.4955263899     1.6886544561    -3.5149941773
 H      2.9467203833     2.3942407088    -3.6602468888
 F      2.1999936506     2.8755716362    -3.8874224266
          4
Energy: -6.323910084957333 Kcal/mole
 H      4.8922902460     1.2719531751    -4.2246197536
 F      4.4543720432     1.5966487878    -3.4872667806
 H      2.9658285859     2.3492029516    -3.7494379565
 F      2.1854066151     2.7186216624    -4.0582426903
          4
Energy: -6.325877484084344 Kcal/mole
 H      5.0165824197     1.7391676984    -4.0501661261
 F      4.3879322241     1.4894119585    -3.4310457809
 H      2.8659175327     2.1850533338    -3.7124720522
 F      2.1312415400     2.6416611430    -4.0168558466
          4
Energy: -6.325655724919329 Kcal/mole
 H      4.1893499442     1.3926614319    -2.2084669662
 F      4.2241398635     1.3861731947    -3.1247838133
 H      2.9600480010     2.2307955125    -3.8633427430
 F      2.2126052244     2.7187792361    -4.0733193635
          4
Energy: -6.3233597812419475 Kcal/mole
 H      4.1732283644     0.8138779919    -2.6905411891
 F      4.3706077138     1.6301300286    -3.0588657811
 H      3.0754875208     2.5063137359    -3.7327305385
 F      2.2841369398     2.8331899789    -4.0610675296
          4
Energy: -6.326234611075222 Kcal/mole
 H      4.6574485985     1.9829486183    -2.2848793853
 F      4.4573379835     1.6743008541    -3.1248682539
 H      3.1126252133     2.3756442172    -3.8809966823
 F      2.3782616309     2.8586753724    -4.1423011635
          4
Energy: -6.320384655109706 Kcal/mole
 H      4.6094331389     1.7001408250    -2.3514673485
 F      4.5161765835     1.7392644877    -3.2628737089
 H      3.1463836485     2.5207773544    -3.9019269659
 F      2.3668360105     2.9617329976    -4.0987837687
          4
Energy: -6.325767331463169 Kcal/mole
 H      5.1753466909     1.9480321749    -4.0573900564
 F      4.5160985253     1.7386815343    -3.4553492228
 H      3.0021367769     2.4646385700    -3.7348551021
 F      2.2675250607     2.9352353960    -4.0172966955
          4
Energy: -6.320627364189988 Kcal/mole
 H      5.2493977805     2.3582266425    -3.4993244305
 F      4.5731828239     1.7506375117    -3.3790839190
 H      3.0527667257     2.2876879895    -3.8822902222
 F      2.3330740130     2.7375289644    -4.2295286081
          4
Energy: -6.3189890514750005 Kcal/mole
 H      5.3153226027     2.0344882700    -4.0747602926
 F      4.6694366197     1.8325384858    -3.4559415942
 H      3.1495061185     2.4271354779    -3.8876498614
 F      2.4316630857     2.8439718652    -4.2773135708
          4
Energy: -6.324555488085878 Kcal/mole
 H      5.2765825458     2.0075577303    -4.2008280115
 F      4.6717856502     1.7459520002    -3.5631194909
 H      3.1454361520     2.4440545626    -3.7951743683
 F      2.4048465622     2.9041228555    -4.0793454883
          4
Energy: -6.326068950150955 Kcal/mole
 H      5.3309538513     2.3129295354    -4.0418612707
 F      4.6646895833     1.7939867682    -3.6845388258
 H      3.0717782198     2.3500888021    -3.8836795874
 F      2.2872211714     2.7846784147    -4.0747060419
          4
Energy: -6.3185755743319305 Kcal/mole
 H      5.2228838002     2.3876413289    -3.3705637156
 F      4.6088837740     1.7504091560    -3.6110385079
 H      3.0748804854     2.3896546025    -3.9518886441
 F      2.3100296850     2.8785967381    -4.0816108130
          4
Energy: -6.327268922087171 Kcal/mole
 H      5.2627279246     2.6042494352    -3.3624093674
 F      4.6876062783     1.9135511380    -3.5442333322
 H      3.1252610523     2.4023668867    -4.0000373225
 F      2.3531160871     2.8469973839    -4.2167972674
          4
Energy: -6.325355686967896 Kcal/mole
 H      5.0028336257     1.4454757890    -4.3329838557
 F      4.4984684138     1.5674674032    -3.5769264643
 H      3.0698615601     2.4740429290    -3.7491048616
 F      2.3546046725     2.9806507650    -4.0186323839
          4
Energy: -6.322193483996443 Kcal/mole
 H      4.5223715487     0.7065015700    -3.9649002258
 F      4.6258320504     1.6104649193    -3.8507284790
 H      3.1721534828     2.5087852985    -3.8922058862
 F      2.3128814990     2.8213951077    -3.9616015999
          4
Energy: -6.320123064075801 Kcal/mole
 H      4.4051358360     0.6889413188    -3.3673657594
 F      4.5528321224     1.5472850267    -3.6542819250
 H      3.1624250643     2.5132344521    -3.7991424602
 F      2.3195782653     2.8704992072    -3.8526230003
          4
Energy: -6.3265511504289975 Kcal/mole
 H      4.4465902527     0.7173392365    -3.5283308071
 F      4.5643501210     1.6237028964    -3.6026714378
 H      3.1347334445     2.4749329962    -3.8923084351
 F      2.2773640001     2.7647382764    -4.0400228061
          4
Energy: -6.325628394225305 Kcal/mole
 H      4.4192454855     0.7137950371    -3.3779446517
 F      4.5455741217     1.6030580636    -3.5627184195
 H      3.1303333609     2.5197805114    -3.7416799022
 F      2.2766801349     2.8515026960    -3.7877837185
          4
Energy: -6.327428129205828 Kcal/mole
 H      4.5840625836     0.8617197393    -3.8805219211
 F      4.6070534101     1.7330992663    -3.5958148055
 H      3.1126876506     2.5258357820    -3.6366768100
 F      2.2409076923     2.7944203954    -3.7302236422
          4
Energy: -6.3164528846145345 Kcal/mole
 H      4.6661856514     1.1702424873    -4.1876242563
 F      4.4466082447     1.5980059518    -3.4067957342
 H      2.9604352160     2.3721762407    -3.3823601840
 F      2.1378714907     2.7448619593    -3.5416814724
          4
Energy: -6.324455086465321 Kcal/mole
 H      4.9670277319     1.7542493561    -4.0876103787
 F      4.4346228860     1.5740213246    -3.3630747090
 H      2.9033612692     2.3192405860    -3.4085878224
 F      2.1489619846     2.8067984891    -3.5931359476
          4
Energy: -6.323121182581758 Kcal/mole
 H      4.5403935303     1.1201843686    -4.0703178599
 F      4.4659755628     1.6643012667    -3.3359557099
 H      3.0682931261     2.6000225455    -3.3192597457
 F      2.2767929878     3.0365805342    -3.4736412655
          4
Energy: -6.327795584326509 Kcal/mole
 H      4.9273832409     1.7844191810    -4.1294859056
 F      4.4246319490     1.6310588141    -3.3780800656
 H      3.0048633874     2.5530804023    -3.2663590680
 F      2.2964336796     3.1264176095    -3.3678519048
          4
Energy: -6.326026656279282 Kcal/mole
 H      4.4174839489     0.9100275633    -3.0150387764
 F      4.5419175705     1.7652080043    -3.3217498575
 H      3.1430109028     2.7124563372    -3.3598620854
 F      2.2967527606     3.0623712446    -3.3119484721
          4
Energy: -6.326574622125634 Kcal/mole
 H      4.6334579353     1.4668882605    -4.3038070229
 F      4.5304523759     1.7326978413    -3.4322428419
 H      3.1189609862     2.6180076455    -3.1514575365
 F      2.3196954949     3.0664275241    -3.1828149418
          4
Energy: -6.326723745382765 Kcal/mole
 H      4.5361416537     1.2395722721    -4.1502646824
 F      4.5819510439     1.8245113230    -3.4455400506
 H      3.1725256126     2.7043719048    -3.1099339089
 F      2.3435290385     3.0931840726    -3.0601465774
          4
Energy: -6.325527070007638 Kcal/mole
 H      4.4348791904     1.0742461168    -4.1949306920
 F      4.5255607905     1.6649662126    -3.4994340236
 H      3.1899370821     2.6493479788    -3.1470010647
 F      2.3897268068     3.0936212799    -3.0906650272
          4
Energy: -6.327530963060497 Kcal/mole
 H      4.4659929761     1.2983881268    -4.4194281034
 F      4.4917358093     1.6660938882    -3.5797741392
 H      3.1552198888     2.6361707494    -3.1750236599
 F      2.3756878073     3.1166422135    -3.1263830793
          4
Energy: -6.327399619575829 Kcal/mole
 H      4.3659746910     1.0589096242    -4.1773480063
 F      4.4319848471     1.5785599881    -3.4246892798
 H      3.0977858869     2.5734089422    -3.1133944502
 F      2.3108980402     3.0440647317    -3.0999912964
          4
Energy: -6.3237252798703025 Kcal/mole
 H      4.5876597336     1.4668238646    -4.3847840108
 F      4.5037338639     1.6690096202    -3.4942974198
 H      3.1684651927     2.6397229395    -3.1101580334
 F      2.4196402503     3.1667986675    -3.0617701984
          4
Energy: -6.326151972550349 Kcal/mole
 H      4.3935945606     1.0583929934    -4.1169763718
 F      4.5046869430     1.6916253229    -3.4630923611
 H      3.1976059247     2.7319261625    -3.2063899523
 F      2.4126831538     3.2060129083    -3.2011936813
          4
Energy: -6.32353039358685 Kcal/mole
 H      4.8056833840     1.6792289427    -4.3405356645
 F      4.4478711965     1.6263236104    -3.4978848090
 H      3.1443156376     2.6892629680    -3.2256680652
 F      2.4876268210     3.3287132024    -3.2530942546
          4
Energy: -6.326898055050606 Kcal/mole
 H      5.2394107942     2.1534384096    -3.5376797654
 F      4.4506272515     1.6886140346    -3.4862227621
 H      3.0499938398     2.6311758950    -3.3822935483
 F      2.4031099811     3.2787213937    -3.3264804630
          4
Energy: -6.325735253897506 Kcal/mole
 H      5.1547058247     2.1530253531    -3.9111393767
 F      4.4518469771     1.7137476406    -3.5188212255
 H      3.0577193436     2.6485704601    -3.3508473038
 F      2.4054659714     3.2928114587    -3.3306464586
          4
Energy: -6.326351614282601 Kcal/mole
 H      5.2656399907     2.1838149617    -3.6920290922
 F      4.4787710758     1.7299763429    -3.5665029242
 H      3.0770468271     2.6750155624    -3.4570536585
 F      2.4297012873     3.3238807360    -3.4286505147
          4
Energy: -6.326139517354363 Kcal/mole
 H      5.2217311026     2.1136776641    -3.4261055345
 F      4.4321496702     1.6759106629    -3.5867611113
 H      3.0714644409     2.6707018253    -3.4735388403
 F      2.4606191559     3.3481878272    -3.3798918700
          4
Energy: -6.325766025304972 Kcal/mole
 H      5.2687392925     2.1055907995    -3.7822550528
 F      4.4721359926     1.7141849072    -3.5517911510
 H      3.1489826791     2.7617829317    -3.3730103071
 F      2.5430144201     3.4486077126    -3.3287024150
          4
Energy: -6.3266903811445445 Kcal/mole
 H      4.6712705408     1.6291641014    -4.4423710663
 F      4.4548250560     1.7150307498    -3.5554284127
 H      3.1966563014     2.8182882964    -3.2491815847
 F      2.5244661501     3.4412924081    -3.2794351380
          4
Energy: -6.3259727305136835 Kcal/mole
 H      4.4653778399     1.3830261912    -4.4069102294
 F      4.4657471880     1.7280877972    -3.5573095281
 H      3.2418650415     2.8673412242    -3.2723325953
 F      2.5233958971     3.4367512224    -3.2938579862
          4
Energy: -6.327269421467292 Kcal/mole
 H      4.2103265137     0.9391616706    -3.6699089271
 F      4.5191926955     1.8021194462    -3.6417209987
 H      3.3007549338     2.9586662751    -3.4111938530
 F      2.5227232414     3.4267610919    -3.2829638711
          4
Energy: -6.325292186511945 Kcal/mole
 H      4.2649211500     0.9198668940    -3.5336975987
 F      4.4743234276     1.7939308192    -3.7154995258
 H      3.2488946767     2.9466486629    -3.4562975215
 F      2.4947878901     3.4303882519    -3.2608289451
          4
Energy: -6.32744378722532 Kcal/mole
 H      4.4749145089     1.0555714871    -3.1860899524
 F      4.4996296136     1.8063265811    -3.7120604387
 H      3.2098109593     2.8827192296    -3.4663301564
 F      2.4617058796     3.3420852477    -3.2013572309
          4
Energy: -6.327673835723431 Kcal/mole
 H      4.2285028189     0.9342199754    -3.7709860837
 F      4.5041608976     1.8042303821    -3.6816355603
 H      3.2545558971     2.9171527225    -3.4042657909
 F      2.4691903637     3.3669364150    -3.2566696905
          4
Energy: -6.3272074395057984 Kcal/mole
 H      4.2967203438     0.9225593036    -3.6396497325
 F      4.5139702992     1.8087699041    -3.7308759816
 H      3.2470694785     2.9018045999    -3.4264300236
 F      2.4668982187     3.3390075581    -3.2237594075
          4
Energy: -6.327459318850856 Kcal/mole
 H      4.5189413204     1.0716514380    -3.2049874835
 F      4.5023398585     1.8031890064    -3.7576774305
 H      3.2478917162     2.9045969484    -3.4730947774
 F      2.5203624621     3.3867888987    -3.1918811441
          4
Energy: -6.325901966176502 Kcal/mole
 H      4.3830739799     0.9614881682    -3.3130964525
 F      4.4860482355     1.7680781825    -3.7370042862
 H      3.2565032762     2.8827246987    -3.4392165577
 F      2.5192916606     3.3616119054    -3.1783045473
          4
Energy: -6.327156531195101 Kcal/mole
 H      4.3480077331     0.9355767243    -3.4563580242
 F      4.4772180688     1.7833729620    -3.7810659367
 H      3.2179427554     2.8776473057    -3.4601641940
 F      2.4565060795     3.3239825348    -3.2113911009
          4
Energy: -6.327083733217307 Kcal/mole
 H      4.3541774477     0.9484223870    -3.3293022687
 F      4.4700052498     1.7506098078    -3.7582174842
 H      3.2436138455     2.9010239847    -3.5104138299
 F      2.5016515762     3.3856817024    -3.2748551588
          4
Energy: -6.3265679500967735 Kcal/mole
 H      4.3767117714     1.0150579636    -3.2568241348
 F      4.4259662070     1.7475099806    -3.8063485140
 H      3.2083196467     2.9002758955    -3.5586470896
 F      2.4848628369     3.3932462138    -3.2857377466
          4
Energy: -6.326745002418875 Kcal/mole
 H      4.4501776579     1.0483827349    -3.1870614044
 F      4.4072792849     1.7151177563    -3.8151642152
 H      3.1814666980     2.8515029414    -3.5652491242
 F      2.4812283316     3.3745785026    -3.2878555633
          4
Energy: -6.32724914068217 Kcal/mole
 H      4.6997039867     1.2885765129    -3.0758216919
 F      4.4126061235     1.7227184642    -3.8307949252
 H      3.1487378931     2.8339665107    -3.6024712809
 F      2.4833935678     3.3893913535    -3.3029563852
          4
Energy: -6.326261402295302 Kcal/mole
 H      5.0242424322     1.6848742180    -3.1626222534
 F      4.3949222700     1.7107419362    -3.8290875523
 H      3.0983631688     2.7675502700    -3.5734943315
 F      2.4716991754     3.3677458794    -3.2769366306
          4
Energy: -6.327481976373633 Kcal/mole
 H      4.9659056487     1.6140690353    -3.1167463779
 F      4.3967216985     1.7087607313    -3.8294539712
 H      3.0877849162     2.7562005879    -3.5802797040
 F      2.4567402253     3.3472215885    -3.2747215673
          4
Energy: -6.326743562778063 Kcal/mole
 H      4.8559742102     1.4773971208    -3.0713604597
 F      4.4025533073     1.7160108606    -3.8318615892
 H      3.1130242519     2.7869868103    -3.5849344774
 F      2.4554013369     3.3455884505    -3.2744746423
          4
Energy: -6.3271816830034595 Kcal/mole
 H      4.8181383871     1.4204419913    -3.0588166822
 F      4.3924038562     1.6877203654    -3.8257595615
 H      3.1145060347     2.7743510323    -3.5766450786
 F      2.4672886597     3.3469329268    -3.2698085691
          4
Energy: -6.327642983525834 Kcal/mole
 H      4.9180914467     1.5378613666    -3.0843378256
 F      4.3958731767     1.6847657234    -3.8236592634
 H      3.1105734571     2.7669553271    -3.5822036996
 F      2.4845133217     3.3597339623    -3.2698718303
          4
Energy: -6.327729342858277 Kcal/mole
 H      4.7520061139     1.3423781861    -3.0534074068
 F      4.4046836198     1.6951356544    -3.8253000506
 H      3.1389942290     2.7956902391    -3.5986023987
 F      2.4789439047     3.3576784780    -3.2996178025
          4
Energy: -6.327943664552265 Kcal/mole
 H      4.8383629898     1.4461891768    -3.0683088557
 F      4.3840079773     1.6788141857    -3.8301068131
 H      3.1059181142     2.7652937281    -3.5903390543
 F      2.4659552931     3.3455358612    -3.2826774633
          4
Energy: -6.327669501911316 Kcal/mole
 H      4.7268716804     1.3114123286    -3.0641267685
 F      4.3899223336     1.6859637861    -3.8303286632
 H      3.1214661766     2.7901440755    -3.6038715400
 F      2.4622151084     3.3501670550    -3.2994847934
          4
Energy: -6.327847918314603 Kcal/mole
 H      4.7811460146     1.3899488413    -3.0559120155
 F      4.3870432056     1.6817976055    -3.8307644369
 H      3.1125181627     2.7806840429    -3.6055483366
 F      2.4626897798     3.3506688879    -3.2993958432
          4
Energy: -6.327761411883557 Kcal/mole
 H      4.8500342505     1.4784947641    -3.0662234307
 F      4.3833888439     1.6771004490    -3.8302174401
 H      3.1020133033     2.7663687980    -3.6068778124
 F      2.4647396848     3.3506585797    -3.3013016577
          4
Energy: -6.327846371573287 Kcal/mole
 H      4.7044739396     1.3054817839    -3.0575745120
 F      4.3911104820     1.6862783878    -3.8306762453
 H      3.1253737321     2.7934309776    -3.6077020825
 F      2.4635004681     3.3492229936    -3.3012579321
          4
Energy: -6.327723374164236 Kcal/mole
 H      4.6743518669     1.2679744770    -3.0654579106
 F      4.3927083884     1.6882680637    -3.8302580492
 H      3.1389169460     2.8023626674    -3.6061885973
 F      2.4722419679     3.3575055543    -3.3091198365
          4
Energy: -6.327799227248022 Kcal/mole
 H      4.6583356918     1.2594263117    -3.0644850063
 F      4.3935580095     1.6887215241    -3.8303096595
 H      3.1398943725     2.8053382189    -3.6095185577
 F      2.4721901177     3.3573477082    -3.3089431898
          4
Energy: -6.327824040013525 Kcal/mole
 H      4.6630287718     1.2606816330    -3.0654207385
 F      4.3933090524     1.6886549322    -3.8302600211
 H      3.1398373664     2.8048787029    -3.6088000068
 F      2.4721931417     3.3573720845    -3.3089813072
