          4
Energy: -6.327034447689641 Kcal/mole
 H      5.0856147326     1.5667914365    -3.2642466391
 F      4.3423698621     1.6690045978    -3.7915307485
 H      3.3541450024     2.9925177164    -3.4106732025
 F      2.9330268032     3.7339177538    -3.0732203216
          4
Energy: -6.326640522076673 Kcal/mole
 H      5.1806383099     1.7347635192    -3.4649506143
 F      4.3336220769     1.6922764002    -3.8137304097
 H      3.3217182973     2.9831591173    -3.3983792655
 F      2.9211870112     3.7489671487    -3.0917822206
          4
Energy: -6.327224327870454 Kcal/mole
 H      5.2470156506     1.8361880840    -3.6821685395
 F      4.3484192416     1.6827277092    -3.7814832269
 H      3.3281667824     2.9731953500    -3.3607056034
 F      2.9352296896     3.7596676436    -3.1000319137
          4
Energy: -6.327618016178235 Kcal/mole
 H      5.2282597797     1.8076521550    -3.5601731576
 F      4.3480861997     1.6850558326    -3.7863447980
 H      3.3287531015     2.9810200695    -3.3753339660
 F      2.9379996247     3.7588119659    -3.0868196918
          4
Energy: -6.327036294189213 Kcal/mole
 H      5.1342272608     1.6745812827    -3.3214412714
 F      4.3684569455     1.7065001809    -3.8248953490
 H      3.3475374238     3.0060590729    -3.4616668927
 F      2.9344346082     3.7579922990    -3.1378899831
          4
Energy: -6.327668421741066 Kcal/mole
 H      5.1674289017     1.7123445229    -3.3552952441
 F      4.3575629739     1.6812949271    -3.7842965280
 H      3.3391672178     2.9908050838    -3.4368128354
 F      2.9344030548     3.7574386334    -3.1379349791
          4
Energy: -6.327649206407841 Kcal/mole
 H      5.0934565973     1.6087984051    -3.3302629950
 F      4.3103655514     1.6613368428    -3.8044961933
 H      3.3270934278     2.9934167829    -3.4406771732
 F      2.9281817880     3.7582980311    -3.1296865306
          4
Energy: -6.327442943243625 Kcal/mole
 H      5.2096609278     1.7698469626    -3.5849542697
 F      4.3225366634     1.6628885679    -3.7910111583
 H      3.3270251183     2.9785693213    -3.4071033245
 F      2.9380657396     3.7665063866    -3.1448919919
          4
Energy: -6.327096424949843 Kcal/mole
 H      5.1846491136     1.8027496443    -3.6965590487
 F      4.2871569074     1.6504043924    -3.8069568024
 H      3.3155771522     2.9717442764    -3.3861278203
 F      2.9608689105     3.7738564067    -3.1183831774
          4
Energy: -6.327363324271062 Kcal/mole
 H      5.1364875797     1.6671040065    -3.4520042420
 F      4.2995423436     1.6663284254    -3.8267188938
 H      3.3389019698     3.0190783851    -3.4537389788
 F      2.9651546983     3.8012320070    -3.1546776324
          4
Energy: -6.32663867020409 Kcal/mole
 H      5.1076936679     1.6309945575    -3.3540233962
 F      4.3009139613     1.6496546799    -3.7895085336
 H      3.3422884613     3.0100192167    -3.4392422392
 F      2.9628179119     3.7907094023    -3.1435837600
          4
Energy: -6.327732873304342 Kcal/mole
 H      5.1652119129     1.7372129417    -3.5031030620
 F      4.2995009996     1.6561054848    -3.7944022123
 H      3.3141185447     2.9934999266    -3.4543991073
 F      2.9384629228     3.7859224755    -3.1863723217
          4
Energy: -6.327394402233608 Kcal/mole
 H      5.1666216355     1.8618047974    -3.9954258153
 F      4.3091989347     1.6474984602    -3.7509097504
 H      3.3167196988     2.9718556859    -3.3666659689
 F      2.9327303435     3.7890172616    -3.2063907861
          4
Energy: -6.326712299205667 Kcal/mole
 H      5.0450242631     1.8135944633    -4.2363558060
 F      4.3068549351     1.6287384017    -3.7246691052
 H      3.3235522059     2.9656471826    -3.3445615229
 F      2.9129949585     3.7790115130    -3.2407818880
          4
Energy: -6.327465448177634 Kcal/mole
 H      4.8624298308     1.7559104414    -4.4401441857
 F      4.3165411478     1.6317984058    -3.7138586025
 H      3.3783127446     2.9841142781    -3.3018868013
 F      2.9581332083     3.7964519370    -3.2352108296
          4
Energy: -6.327793237375033 Kcal/mole
 H      5.0688678588     1.8030101393    -4.1691016321
 F      4.2916458509     1.6174782547    -3.7192206809
 H      3.3417549936     2.9717240956    -3.3507174720
 F      2.9600725125     3.7971092076    -3.2326204753
          4
Energy: -6.3277124925313615 Kcal/mole
 H      5.1337568276     1.8023843906    -3.9765914143
 F      4.2667802339     1.6118318653    -3.7465255082
 H      3.3202214061     2.9679458708    -3.3861714443
 F      2.9612148196     3.7973096337    -3.2307397240
          4
Energy: -6.327411879329645 Kcal/mole
 H      5.1996502915     1.8080379625    -3.8757183645
 F      4.3064756008     1.6386353748    -3.7555903699
 H      3.3475714745     2.9902343260    -3.4028328657
 F      2.9828593279     3.8110243280    -3.2179604160
          4
Energy: -6.326982806414378 Kcal/mole
 H      5.0844341522     1.8295299910    -4.1950125939
 F      4.3125875508     1.6374952723    -3.7386525489
 H      3.3626384245     2.9823280329    -3.3549050478
 F      2.9746248568     3.8051172936    -3.2393528785
          4
Energy: -6.327101640521903 Kcal/mole
 H      4.9888554104     1.8187161010    -4.3384056081
 F      4.3514331439     1.6583922359    -3.6989698315
 H      3.3819269813     2.9951052155    -3.3268136614
 F      2.9667221640     3.8086013348    -3.2448501106
          4
Energy: -6.327699175613134 Kcal/mole
 H      5.0715350088     1.8231333912    -4.1987373056
 F      4.3216747289     1.6429298295    -3.7026271999
 H      3.3580637149     2.9893652232    -3.3493718936
 F      2.9620740276     3.8103480610    -3.2490307374
          4
Energy: -6.327869287613112 Kcal/mole
 H      5.1810442752     1.7348078958    -3.5976657001
 F      4.2881051308     1.6328199805    -3.7797292868
 H      3.3275111335     2.9999290704    -3.4851950999
 F      2.9671677859     3.8158397045    -3.2722831251
          4
Energy: -6.327980840454302 Kcal/mole
 H      5.1898347357     1.7632589457    -3.6778966362
 F      4.2876388172     1.6313107181    -3.7754732210
 H      3.3333307906     3.0029478436    -3.4876180449
 F      2.9797697038     3.8276346277    -3.2984745386
          4
Energy: -6.327567836024741 Kcal/mole
 H      5.0784280370     1.6265378935    -3.3204028539
 F      4.2935486851     1.6385634540    -3.7944374401
 H      3.3401419465     3.0164569100    -3.5385056762
 F      2.9682451862     3.8163881183    -3.2881222469
          4
Energy: -6.32788440222555 Kcal/mole
 H      5.1575865576     1.7101267794    -3.4998267927
 F      4.2893495085     1.6341292567    -3.7849194147
 H      3.3309134853     3.0039006256    -3.5098616734
 F      2.9687347347     3.8170542002    -3.2896417451
          4
Energy: -6.327583292792724 Kcal/mole
 H      4.9792961211     1.5318990638    -3.1967160316
 F      4.2945235939     1.6358410998    -3.7976916045
 H      3.3501955059     3.0272182916    -3.5608485267
 F      2.9520070692     3.8068103509    -3.2877712666
          4
Energy: -6.326908982596819 Kcal/mole
 H      5.0445870740     1.6197321063    -3.2701217257
 F      4.2826424930     1.6278618412    -3.7802818603
 H      3.3325068265     3.0099752170    -3.5545869946
 F      2.9564186986     3.8082252862    -3.3051004275
          4
Energy: -6.327416910749605 Kcal/mole
 H      5.1762463867     1.7640270484    -3.6637655894
 F      4.2756582707     1.6202073279    -3.7593999630
 H      3.3154578214     2.9846278649    -3.4878054168
 F      2.9573231090     3.8095699046    -3.3086430359
          4
Energy: -6.327457231391179 Kcal/mole
 H      5.0919733676     1.6323890881    -3.3485842640
 F      4.2785475722     1.6190206152    -3.7717257998
 H      3.3264289775     3.0063629672    -3.5390245853
 F      2.9576777931     3.8117120690    -3.3016969883
          4
Energy: -6.327722067883656 Kcal/mole
 H      5.1357260871     1.6922496791    -3.4899403863
 F      4.2684919964     1.6186623823    -3.7786945060
 H      3.3148894157     2.9963004514    -3.5216156963
 F      2.9582899402     3.8122458622    -3.3026204896
          4
Energy: -6.327281616069911 Kcal/mole
 H      5.0969994530     1.6583816152    -3.4365982556
 F      4.2590905910     1.6188556439    -3.8070512711
 H      3.3189484599     3.0024540434    -3.5372176903
 F      2.9580746173     3.8119194284    -3.3017928399
          4
Energy: -6.327877748388914 Kcal/mole
 H      5.1221299460     1.6840699477    -3.5045856411
 F      4.2577574765     1.6174929372    -3.8034446974
 H      3.3019779502     2.9915962467    -3.5418670774
 F      2.9384048246     3.8054319381    -3.3265184074
          4
Energy: -6.327400092152629 Kcal/mole
 H      5.0154964093     1.7724171469    -4.2795394140
 F      4.2616479684     1.6102724406    -3.7832425045
 H      3.3183089197     2.9777111723    -3.4357808074
 F      2.9440865665     3.8105402712    -3.3506789724
          4
Energy: -6.327551190778934 Kcal/mole
 H      4.9980865585     1.7734045208    -4.3128824593
 F      4.2589253979     1.6144395352    -3.7939798557
 H      3.3218484084     2.9802092929    -3.4441175870
 F      2.9438988048     3.8104077517    -3.3502367255
          4
Energy: -6.327893535496457 Kcal/mole
 H      5.0087644415     1.7808865044    -4.2948786503
 F      4.2583589609     1.6140426332    -3.7949349162
 H      3.3200382990     2.9812084141    -3.4335865227
 F      2.9413667635     3.8103238270    -3.3332645400
          4
Energy: -6.327462996962311 Kcal/mole
 H      5.1102484133     1.7926664351    -4.0688559560
 F      4.2475741521     1.6124105111    -3.8154986569
 H      3.3116952939     2.9875471371    -3.4634026711
 F      2.9648234299     3.8232795835    -3.3146740999
          4
Energy: -6.327481839134634 Kcal/mole
 H      5.0926047438     1.7907943873    -4.1780105906
 F      4.2722452610     1.6211253830    -3.8050337173
 H      3.3387956087     2.9895711447    -3.4452425248
 F      2.9798409304     3.8245597217    -3.3234450892
          4
Energy: -6.327824251722575 Kcal/mole
 H      5.0719210098     1.7956312242    -4.2113032762
 F      4.2691197273     1.6147020725    -3.8067495185
 H      3.3460535499     2.9891991606    -3.4352623660
 F      2.9929576655     3.8266034531    -3.3129253423
          4
Energy: -6.327655602110781 Kcal/mole
 H      5.1474612149     1.7966547106    -4.0798711973
 F      4.2831363146     1.6277230253    -3.8243451665
 H      3.3494152506     2.9986450754    -3.4680771304
 F      2.9929526004     3.8296597436    -3.3156369770
          4
Energy: -6.327770764265097 Kcal/mole
 H      5.0095389114     1.7899482033    -4.3552656150
 F      4.2904527741     1.6280787900    -3.8097361290
 H      3.3685654240     3.0000078966    -3.4221756950
 F      2.9919367280     3.8295874491    -3.3180719421
          4
Energy: -6.327802752869104 Kcal/mole
 H      4.9238075313     1.7534118047    -4.4601194436
 F      4.2950006257     1.6300169616    -3.8041738757
 H      3.3810408744     3.0039417507    -3.4062399378
 F      2.9912749342     3.8293787672    -3.3189172972
          4
Energy: -6.327599576267062 Kcal/mole
 H      4.7628532005     1.6787981264    -4.5897074127
 F      4.3035388810     1.6339750448    -3.7972995334
 H      3.4137990644     3.0182512143    -3.3865833016
 F      2.9937246330     3.8308541713    -3.3225293678
          4
Energy: -6.326880519310976 Kcal/mole
 H      4.8474695313     1.7168368006    -4.5541544468
 F      4.3149657671     1.6351077640    -3.8120971002
 H      3.4084082626     3.0136408251    -3.4028402189
 F      3.0053244704     3.8332779589    -3.3215541477
          4
Energy: -6.327364785314501 Kcal/mole
 H      4.8083844116     1.6834297183    -4.5609930604
 F      4.3021112574     1.6150655632    -3.7994795440
 H      3.4223591113     3.0113404650    -3.3923590452
 F      3.0234791463     3.8349753842    -3.3339698913
          4
Energy: -6.327746461183494 Kcal/mole
 H      4.6932419162     1.6409618592    -4.6218258888
 F      4.2977729242     1.6129259423    -3.7949599603
 H      3.4378587214     3.0139399532    -3.3816989485
 F      3.0289549626     3.8332525654    -3.3325709580
          4
Energy: -6.3272889615146255 Kcal/mole
 H      4.5691004824     1.5893083740    -4.6699631524
 F      4.3043583404     1.6156660403    -3.7924063897
 H      3.4560101239     3.0229480209    -3.3761140093
 F      3.0279920727     3.8327747083    -3.3328672261
          4
Energy: -6.327928117505337 Kcal/mole
 H      4.3673941769     1.4509482979    -4.6936143988
 F      4.3226230498     1.6218247802    -3.7937889858
 H      3.4949256320     3.0445910722    -3.3816924342
 F      3.0267075175     3.8321132217    -3.3433562725
          4
Energy: -6.327609188478448 Kcal/mole
 H      4.3049476117     1.4128416919    -4.6863224206
 F      4.3259356958     1.6238462476    -3.7941758084
 H      3.5026568806     3.0493833828    -3.3844708009
 F      3.0262973926     3.8318590007    -3.3432088866
          4
Energy: -6.32766475908187 Kcal/mole
 H      4.3132605661     1.4041584780    -4.6843767736
 F      4.3254947127     1.6243068721    -3.7942790204
 H      3.5078752760     3.0526486317    -3.3856454241
 F      3.0260205688     3.8316857868    -3.3431465755
          4
Energy: -6.327660152774456 Kcal/mole
 H      4.6254642848     1.5966493686    -4.6562326836
 F      4.3089330269     1.6140956751    -3.7957719994
 H      3.4513447204     3.0207513788    -3.3895088768
 F      3.0290193841     3.8333778624    -3.3429416283
          4
Energy: -6.327543745001208 Kcal/mole
 H      4.6343533834     1.5950909756    -4.6528743820
 F      4.3084614807     1.6141783443    -3.7959501495
 H      3.4502255204     3.0199003752    -3.3845028402
 F      3.0290787551     3.8334230061    -3.3432071870
          4
Energy: -6.32744618455979 Kcal/mole
 H      4.6786581413     1.6327056448    -4.6415991858
 F      4.3031560718     1.6159564243    -3.8051742583
 H      3.4426249016     3.0162260659    -3.3885184380
 F      3.0294819504     3.8336179197    -3.3429941688
          4
Energy: -6.3269692520538 Kcal/mole
 H      4.8412904145     1.7139291812    -4.5396107385
 F      4.2945288055     1.6116477034    -3.8105845097
 H      3.4196658890     3.0042186133    -3.4104022860
 F      3.0309529294     3.8316257586    -3.3383699951
          4
Energy: -6.327700101752214 Kcal/mole
 H      4.8734064469     1.7216519090    -4.5131467633
 F      4.2928251242     1.6112380305    -3.8119883625
 H      3.4107517949     3.0003043603    -3.4128093616
 F      3.0314258015     3.8318334006    -3.3382423053
          4
Energy: -6.327956995020884 Kcal/mole
 H      4.8580312605     1.7057934613    -4.5278465537
 F      4.2936407423     1.6120792845    -3.8112085726
 H      3.4093928713     3.0029408034    -3.4114916124
 F      3.0213283987     3.8304179402    -3.3368152896
          4
Energy: -6.327837430489012 Kcal/mole
 H      4.9541271374     1.7435013430    -4.4327631363
 F      4.2885430781     1.6100789685    -3.8162525281
 H      3.3888832406     2.9967971568    -3.4321003755
 F      3.0140324540     3.8291354624    -3.3449864680
          4
Energy: -6.327444890132995 Kcal/mole
 H      5.0501382933     1.7461721282    -4.2652287700
 F      4.2634126187     1.5982975071    -3.8179203649
 H      3.3511111331     2.9879630206    -3.4623965969
 F      2.9977713070     3.8270079702    -3.3526535343
          4
Energy: -6.327915095408798 Kcal/mole
 H      5.1698561342     1.7857139992    -3.9648367375
 F      4.2824453641     1.6134058979    -3.8108853055
 H      3.3431134082     2.9901275325    -3.4982120371
 F      2.9981955678     3.8268931479    -3.3507536079
          4
Energy: -6.327850779490859 Kcal/mole
 H      5.0733151602     1.7807291856    -4.2386062894
 F      4.2875666397     1.6136703307    -3.7963624634
 H      3.3570656308     2.9905128656    -3.4502475101
 F      2.9962431324     3.8270984980    -3.3462253768
          4
Energy: -6.327965217735709 Kcal/mole
 H      5.1712626159     1.7755215626    -3.9677461970
 F      4.2823707535     1.6139465831    -3.8107309654
 H      3.3526912918     2.9936947088    -3.4832143587
 F      3.0109354748     3.8299844346    -3.3260155802
          4
Energy: -6.327916622819657 Kcal/mole
 H      5.1944542247     1.7460395846    -3.7558696284
 F      4.2887651026     1.6184786422    -3.8217818442
 H      3.3506242359     2.9998405923    -3.5165427223
 F      3.0110451273     3.8296584097    -3.3242475875
          4
Energy: -6.327481910618076 Kcal/mole
 H      5.1454152449     1.6468614059    -3.5021421951
 F      4.2913665072     1.6237398154    -3.8352414982
 H      3.3651695937     3.0153861811    -3.5530506765
 F      3.0102735297     3.8288337522    -3.3223109249
          4
Energy: -6.327504871522137 Kcal/mole
 H      5.1546854258     1.6610330925    -3.5284406582
 F      4.2908747455     1.6229880402    -3.8338464255
 H      3.3716541864     3.0139415918    -3.5520408852
 F      3.0254554762     3.8309943375    -3.3208261284
          4
Energy: -6.3277147628202215 Kcal/mole
 H      5.1938843383     1.7289487504    -3.6738653860
 F      4.2950905945     1.6209149524    -3.8201100594
 H      3.3628989156     3.0032362803    -3.5252504526
 F      3.0259199231     3.8315622295    -3.3222472989
          4
Energy: -6.32778753099285 Kcal/mole
 H      5.1867070407     1.7626671093    -3.8726317729
 F      4.2824481379     1.6168124430    -3.8286857475
 H      3.3586149263     2.9994579692    -3.5046326523
 F      3.0227236901     3.8329193894    -3.3218537189
          4
Energy: -6.327761022905463 Kcal/mole
 H      5.1688927538     1.6851312299    -3.6613470013
 F      4.2743650647     1.6159517820    -3.8508817403
 H      3.3554486098     3.0110812178    -3.5473448975
 F      3.0209811704     3.8368154421    -3.3301272119
          4
Energy: -6.327838764685964 Kcal/mole
 H      5.1813805708     1.7281986149    -3.7820885914
 F      4.2737026148     1.6136671568    -3.8444766780
 H      3.3530358149     3.0054383381    -3.5286727508
 F      3.0211091636     3.8371147838    -3.3311177261
          4
Energy: -6.327859760350918 Kcal/mole
 H      5.1412758081     1.6584630565    -3.5872100633
 F      4.2665012324     1.6145085682    -3.8587362033
 H      3.3535891295     3.0148829522    -3.5639484120
 F      3.0210798116     3.8366137688    -3.3292464338
          4
Energy: -6.327907281040723 Kcal/mole
 H      5.1724069421     1.7219229454    -3.7782010968
 F      4.2648497977     1.6111421677    -3.8486045703
 H      3.3480577910     3.0039903111    -3.5308563786
 F      3.0213732363     3.8371915983    -3.3310018897
          4
Energy: -6.327694885701817 Kcal/mole
 H      5.1392918658     1.6536806319    -3.5801917280
 F      4.2666064760     1.6147622648    -3.8591085098
 H      3.3540509391     3.0167504903    -3.5655905617
 F      3.0167418043     3.8382588779    -3.3370396556
          4
Energy: -6.327959672843349 Kcal/mole
 H      5.1381440678     1.6586538823    -3.5773587195
 F      4.2666673640     1.6144984453    -3.8592587943
 H      3.3539690232     3.0127739983    -3.5665855344
 F      3.0188302585     3.8334432268    -3.3319091064
          4
Energy: -6.327870256865708 Kcal/mole
 H      5.1317507312     1.6383057253    -3.5488480455
 F      4.2693482109     1.6116550509    -3.8593969701
 H      3.3511278875     3.0067757843    -3.5639755662
 F      3.0092367891     3.8222522105    -3.3210811959
          4
Energy: -6.327927905559363 Kcal/mole
 H      5.1332210667     1.6465000627    -3.5537934032
 F      4.2692702130     1.6112203602    -3.8591346303
 H      3.3485689900     3.0053334723    -3.5627129203
 F      3.0093725327     3.8223287218    -3.3211481764
          4
Energy: -6.327814735508184 Kcal/mole
 H      5.1222367378     1.6313775280    -3.5231843911
 F      4.2698529063     1.6120225757    -3.8607583677
 H      3.3493503760     3.0066779877    -3.5661322522
 F      3.0093310820     3.8222573984    -3.3209667887
          4
Energy: -6.3278285853339185 Kcal/mole
 H      5.1094919747     1.6255378936    -3.4924486717
 F      4.2705289865     1.6123323548    -3.8623888266
 H      3.3530794804     3.0101272415    -3.5722977687
 F      3.0091332616     3.8220744235    -3.3206397223
          4
Energy: -6.327918568292944 Kcal/mole
 H      5.1204940006     1.6326098803    -3.5188904520
 F      4.2699453545     1.6119572023    -3.8609861512
 H      3.3504331660     3.0072227992    -3.5664395722
 F      3.0092736425     3.8222284974    -3.3209504861
          4
Energy: -6.32791709787648 Kcal/mole
 H      5.1257957134     1.6402883869    -3.5329749240
 F      4.2696641109     1.6115498752    -3.8602390025
 H      3.3507043563     3.0074247468    -3.5667327171
 F      3.0092592565     3.8222177846    -3.3209349354
          4
Energy: -6.32793415125343 Kcal/mole
 H      5.1295003802     1.6438317423    -3.5431876754
 F      4.2694675868     1.6113619084    -3.8596972397
 H      3.3487996478     3.0056176323    -3.5633489220
 F      3.0093602969     3.8223136478    -3.3211144379
          4
Energy: -6.327818590197467 Kcal/mole
 H      5.1522151948     1.6774080489    -3.6212157549
 F      4.2682626184     1.6095807629    -3.8555580304
 H      3.3445971795     3.0009904831    -3.5533343742
 F      3.0095832281     3.8225591074    -3.3216456866
          4
Energy: -6.3279287734022205 Kcal/mole
 H      5.1415577029     1.6600240987    -3.5806204241
 F      4.2688279737     1.6105029413    -3.8577115188
 H      3.3486469861     3.0034578906    -3.5561586895
 F      3.0093683952     3.8224282171    -3.3214958632
          4
Energy: -6.327930200511503 Kcal/mole
 H      5.1370098885     1.6469012293    -3.5647937701
 F      4.2690692248     1.6111990792    -3.8585510863
 H      3.3517306302     3.0057313768    -3.5595756252
 F      3.0092048150     3.8223076139    -3.3213146026
          4
Energy: -6.327920219925431 Kcal/mole
 H      5.1069964253     1.6162040881    -3.4866369271
 F      4.2706613696     1.6128274916    -3.8626971262
 H      3.3523257830     3.0100563349    -3.5730965560
 F      3.0091732435     3.8220781849    -3.3205973485
          4
Energy: -6.327980098923433 Kcal/mole
 H      5.1371643497     1.6508795213    -3.5657637472
 F      4.2690610310     1.6109880400    -3.8584996312
 H      3.3494561235     3.0049627348    -3.5601975643
 F      3.0093254724     3.8223483886    -3.3212816102
          4
Energy: -6.327948717324489 Kcal/mole
 H      5.1390956225     1.6480659635    -3.5643138598
 F      4.2697002118     1.6102022564    -3.8534625406
 H      3.3508959291     3.0046339218    -3.5569954499
 F      3.0092490940     3.8223658314    -3.3214514750
          4
Energy: -6.327939084505772 Kcal/mole
 H      5.1528908499     1.6680886754    -3.6139834723
 F      4.2689684069     1.6091400978    -3.8508276824
 H      3.3490644993     3.0015153963    -3.5486400670
 F      3.0093462471     3.8225312620    -3.3218947087
          4
Energy: -6.32795646246899 Kcal/mole
 H      5.1596010593     1.6793642004    -3.6442524711
 F      4.2686124458     1.6085419572    -3.8492219820
 H      3.3474479451     2.9996761279    -3.5443455431
 F      3.0094320016     3.8226288309    -3.3221225233
          4
Energy: -6.327946054867255 Kcal/mole
 H      5.1625275940     1.6854213965    -3.6598043777
 F      4.2684571999     1.6082206370    -3.8483969893
 H      3.3464794436     2.9989007539    -3.5429389411
 F      3.0094833783     3.8226699627    -3.3221971403
          4
Energy: -6.32793336648723 Kcal/mole
 H      5.1613080892     1.6913732074    -3.6565912705
 F      4.2685218918     1.6079049072    -3.8485674372
 H      3.3450089526     2.9983874827    -3.5432623977
 F      3.0095613845     3.8226971905    -3.3221799816
          4
Energy: -6.327977213583949 Kcal/mole
 H      5.1612792831     1.6861693476    -3.6542836278
 F      4.2685234199     1.6081809599    -3.8486898523
 H      3.3463572645     2.9988461837    -3.5429217763
 F      3.0094898597     3.8226728575    -3.3221980508
          4
Energy: -6.327979490044925 Kcal/mole
 H      5.1610646623     1.6859207178    -3.6532017636
 F      4.2685348050     1.6081941492    -3.8487472427
 H      3.3460037713     2.9987290066    -3.5430235699
 F      3.0095086117     3.8226790735    -3.3221926509
