          4
Energy: -6.0494962198794155 Kcal/mole
 H     -3.5090906017     6.7275440660    -4.7907025089
 F     -3.6469504804     5.8297562844    -4.9166419902
 H     -5.3642017523     5.6147479927    -4.8936772838
 F     -6.2797294573     5.6102908694    -4.9454281809
          4
Energy: -6.312829131043543 Kcal/mole
 H     -0.2630351248    -5.6652546500    -6.5066177790
 F      0.2455557710    -6.1501942549    -7.0957339647
 H     -2.1548291860    -5.6000083018    -5.3962157966
 F     -1.4462622044    -5.0263653356    -5.4949861359
          4
Energy: -5.411343220317832 Kcal/mole
 H      3.1002437316    -3.2009143597    -0.1446298237
 F      2.5715900258    -2.6101288659    -0.6054842037
 H      5.6269820794    -3.6064902134     0.6220719219
 F      4.7240140777    -3.7483004836     0.6957444082
          4
Energy: -6.161064678862829 Kcal/mole
 H     -1.5223911401    -2.6835894389     3.2527377693
 F     -1.5102285635    -1.8989125822     2.7783715582
 H     -0.3730013118    -3.6308304452     4.8204588665
 F     -1.1211266492    -3.9548953291     4.4007215315
          4
Energy: -6.241546297142861 Kcal/mole
 H     -0.9401379082    -3.6877104999    -5.1315870651
 F     -0.9017830264    -3.1061884047    -4.4235969833
 H     -0.8194868520    -5.8035336330    -5.4137500559
 F     -0.8859262183    -5.1211101594    -6.0226613905
          4
Energy: -5.708963715234802 Kcal/mole
 H      4.6382827345    -1.0659205391     6.0655342517
 F      4.0572720922    -1.1117393522     6.7735005432
 H      5.8100212716     0.0633257562     4.7809221673
 F      5.6754961629    -0.8302920772     4.9366114828
          4
Energy: -6.012858156100776 Kcal/mole
 H      0.5054268665    -3.1778121361     2.0487600165
 F     -0.1191356075    -2.9689524233     1.4106469102
 H      2.6508778819    -3.8539042979     3.1592136868
 F      1.7363396478    -3.8022530683     3.1163071750
          4
Energy: -6.045343151645056 Kcal/mole
 H      2.0801680868    -2.7065247291    -2.6504948981
 F      1.4082588488    -2.6531290190    -3.2722471591
 H      2.1887216967    -2.3659418646    -0.6176659003
 F      2.8119685080    -2.7764368785    -1.1505319771
          4
Energy: -6.092041504053213 Kcal/mole
 H     -0.4989660501     4.9369895356    -4.7901899580
 F     -0.8946087803     5.6605676502    -5.1911769182
 H     -0.1816119740     3.8401863163    -2.7433889727
 F      0.0912295499     3.8680789729    -3.6184138309
          4
Energy: -5.4953326511069065 Kcal/mole
 H     -2.7156433225    -0.4231937516    -4.4511802299
 F     -1.8404370809    -0.6072299769    -4.6537480022
 H     -4.2607126576    -1.2803537743    -3.2191600424
 F     -4.4566689661    -0.6856945606    -3.8891380604
          4
Energy: -6.247100017319781 Kcal/mole
 H      1.3466634478     3.2836733236    -3.6584159891
 F      0.9134881673     2.8815409857    -4.3595135280
 H      3.2465515280     4.1059138969    -2.9319455542
 F      2.4027030182     3.9649193623    -2.6019012636
          4
Energy: -6.19353735258062 Kcal/mole
 H      3.8260237505    -6.2439284848     6.0236123649
 F      4.1225319646    -7.1088365272     6.0936549035
 H      2.7747663918    -4.5230527968     6.9041292676
 F      3.1665894460    -4.6503153416     6.0848808688
          4
Energy: -5.6129367802594174 Kcal/mole
 H      6.4625026138    -3.5125250726     2.8489147332
 F      6.6213117240    -3.8792230049     2.0235655386
 H      5.9386277272    -2.5677374259     5.0338164410
 F      6.4904366449    -2.7797686180     4.3327895571
          4
Energy: -5.365955300086284 Kcal/mole
 H      3.0216337383    -3.1732218706    -1.2644751145
 F      2.1213145363    -3.2389164887    -1.4257157783
 H      4.4022459126    -1.9160114364    -0.8632547449
 F      4.5269646839    -2.7775322202    -1.1515534911
          4
Energy: -6.0609524578512435 Kcal/mole
 H      3.4114859126     0.1834858843    -0.1036471874
 F      4.1765207776     0.6758650988     0.0111280906
 H      5.8746168050     0.5518802557     0.4245983687
 F      6.7528293014     0.3574980498     0.6030566811
          4
Energy: -6.01213538014207 Kcal/mole
 H     -5.9587376435    -6.0513914261     5.5947432185
 F     -6.3963063231    -6.6412386261     5.0456503927
 H     -5.4728936327    -6.8704623892     3.6956783224
 F     -4.9838711746    -6.9101757534     2.9209726466
          4
Energy: -5.825181305083049 Kcal/mole
 H      6.1446603254    -0.2817181069     4.5779601255
 F      5.7955815569    -1.0826842799     4.2995966883
 H      6.0681514434     1.1827646989     6.1088981727
 F      6.6210407028     1.2323896923     5.3790078886
          4
Energy: -6.2568323751467005 Kcal/mole
 H      4.1831108714     5.7510024232     3.4437922230
 F      4.2314600442     5.1203428756     4.1077349106
 H      4.0142308893     5.8984772880     1.2175849838
 F      4.0180166583     6.4841390735     1.9231875213
          4
Energy: -6.2024853677107785 Kcal/mole
 H      6.3805423351     6.0754240490    -3.9455718956
 F      6.9678277455     5.6404632188    -4.4994617068
 H      6.9936699463     4.0313642497    -5.0636923046
 F      6.9388168081     3.1679578260    -5.3676815818
          4
Energy: -6.131181625108553 Kcal/mole
 H     -1.7202915756    -3.6662332171    -4.4021997255
 F     -2.0277302825    -3.7100037660    -3.5393819113
 H     -2.8614344246    -2.4609003504    -2.6277527806
 F     -3.1704764692    -1.6622498997    -2.2998206653
          4
Energy: -6.191823166757558 Kcal/mole
 H      1.1365741807    -3.0293680549    -6.6408386660
 F      0.9305583131    -2.6476980458    -5.8328940723
 H      1.9354732514    -3.3025799169    -4.5175047420
 F      2.5222518131    -3.8221150272    -4.0414131661
          4
Energy: -5.650233802756048 Kcal/mole
 H      4.2683856886    -2.4984323335     2.2732497365
 F      3.7592584036    -3.1647428301     2.6443410054
 H      3.1397893108    -3.9798830695     4.2617126681
 F      2.9612380945    -4.3096645918     5.0985236448
          4
Energy: -5.603742740018731 Kcal/mole
 H      3.3891639040     4.3828424784    -0.2745964004
 F      2.9612611451     3.5748171628    -0.3444771432
 H      1.8332954730     3.9824777603    -1.4416805955
 F      1.2743633683     4.2110637664    -2.1317764876
          4
Energy: -6.025254221069304 Kcal/mole
 H      1.8127842458    -0.7075405148     5.4299931565
 F      1.8290664155    -1.5198174578     5.0047519791
 H      2.1574374304    -2.9668689780     5.8802159637
 F      2.5235920176    -3.5202844593     6.5131070470
          4
Energy: -6.107839000229006 Kcal/mole
 H     -7.0278234623     2.0096963989     5.2610572290
 F     -6.5868714313     2.2314840764     4.4882309015
 H     -5.4575880494     3.6222441992     4.5044151415
 F     -4.9825181252     4.4005949812     4.6012016451
          4
Energy: -5.89759448864902 Kcal/mole
 H     -3.7876210436     3.7417568961     2.8434220882
 F     -4.6307645532     3.4932304128     2.5822083650
 H     -4.9245429898     4.0866153478     1.0083348959
 F     -4.9009082967     4.2396076276     0.1044965455
          4
Energy: -6.219098764181069 Kcal/mole
 H      3.3645643531    -3.2071231201     2.2452546175
 F      2.4786307829    -3.2483018161     2.0121987786
 H      1.5496732943    -2.8994631523     3.3880345769
 F      1.2353468926    -2.8040243704     4.2441767101
          4
Energy: -6.053140379325583 Kcal/mole
 H      1.7721432853     0.4155072357    -1.0983990213
 F      1.4652503098    -0.3910136316    -0.7881897497
 H      2.5324518424    -1.2815594267     0.3925936967
 F      3.1985121307    -1.6271634134     0.9196710882
          4
Energy: -6.262894370831646 Kcal/mole
 H     -3.6166726711     2.3396123722    -4.1329378699
 F     -3.8967507261     3.2087315547    -4.2170635480
 H     -5.1216236753     3.6244472823    -5.2645283617
 F     -5.8300343073     3.6946041838    -5.8425607013
          4
Energy: -6.217368451940018 Kcal/mole
 H     -7.3985768214    -7.0410624133    -1.5412710110
 F     -6.4953151752    -7.1813045719    -1.4681988850
 H     -5.5662006795    -7.2697198460    -2.9760473530
 F     -5.2816687578    -7.2266942635    -3.8467248966
          4
Energy: -5.891998348625975 Kcal/mole
 H      0.8643300291    -3.2411244071    -1.4079581523
 F      0.2592576681    -2.6086032771    -1.1346571134
 H      0.2222781832    -2.0463797450     0.4733487409
 F      0.1392352037    -1.6438456666     1.2930799037
          4
Energy: -6.216158402002861 Kcal/mole
 H     -0.7813792706     4.8028665566     2.8228019800
 F     -0.8291526298     5.5582312520     2.3050849888
 H     -2.0135999146     5.2695163982     1.0761110533
 F     -2.7064913878     4.8712680778     0.6264570957
          4
Energy: -6.198491808458471 Kcal/mole
 H      6.6590293131     6.7315889465     3.8896630139
 F      6.5076111986     6.2563169988     3.1201968806
 H      4.8780846726     5.6204612771     2.8104054707
 F      3.9812377677     5.4320013492     2.7781954580
          4
Energy: -6.005248175467159 Kcal/mole
 H      3.5735613243     6.2093394165     2.2630776450
 F      2.7851317211     5.8570360641     2.5715417573
 H      1.5932594623     6.8484036440     1.6388348686
 F      1.3238152908     7.4750750316     1.0259957294
          4
Energy: -6.120861928632422 Kcal/mole
 H      2.4628434692     1.1730714108     5.6849256675
 F      2.1082581718     0.5365553614     6.2417071199
 H      1.7968806905    -1.1257521258     5.6176461586
 F      1.6286088366    -1.8920506283     5.1429249896
          4
Energy: -6.021967083812257 Kcal/mole
 H      1.4709741211    -2.5905950241     7.2573344017
 F      2.0934890304    -2.6113874119     6.5843322737
 H      2.2220491464    -3.1239913178     4.8765042883
 F      2.1289184611    -3.3281149912     3.9873759503
          4
Energy: -6.292755199221176 Kcal/mole
 H      1.1020271138    -4.3645328829     6.1255086890
 F      0.2900715632    -4.7237905650     5.8962684183
 H     -0.9237646052    -3.6804852978     5.2473796675
 F     -1.4577509578    -3.0284764410     4.8859491405
          4
Energy: -6.243863577374981 Kcal/mole
 H     -7.2896154498    -4.4883428794     3.5591279261
 F     -6.3802311860    -4.5059739856     3.6757401252
 H     -5.4109884031    -3.2504915091     4.4102702801
 F     -5.0355737113    -2.5096511546     4.7989968915
          4
Energy: -6.1011405950785615 Kcal/mole
 H      3.4920897523    -4.9792826371    -0.3201781397
 F      3.0710056126    -4.1673147926    -0.2547154259
 H      3.1965219062    -3.6899334827     1.4388861805
 F      3.3070686752    -3.6052057555     2.3452468284
          4
Energy: -6.082723272962824 Kcal/mole
 H      3.5045027194     1.4971620225     1.6083900623
 F      3.8077917792     0.7642016428     2.0684703031
 H      3.8800919927    -0.4240442623     0.9655881534
 F      3.9439438567    -0.9809769883     0.2398899528
          4
Energy: -6.242859488795716 Kcal/mole
 H      6.0478969143    -7.3182317984    -1.2875527713
 F      6.7060367330    -6.9452606022    -0.7692541453
 H      6.1618389090    -6.1572648018     0.6984679065
 F      5.6531249798    -5.7553043628     1.3469483948
          4
Energy: -6.305320011990375 Kcal/mole
 H      2.6213808589    -6.3449875265     2.7322516365
 F      3.0576760561    -5.8958597994     2.0623115006
 H      3.1765275708    -6.5601553573     0.4999180692
 F      3.1391720125    -7.0169313423    -0.2943421286
          4
Energy: -6.298286508029662 Kcal/mole
 H      1.7095693190    -3.6209037239    -4.2864389153
 F      2.1066930394    -3.4707514168    -3.4736437164
 H      2.0142191159    -4.7632613162    -2.3317964383
 F      1.8633807164    -5.5151813819    -1.8290509839
          4
Energy: -6.254539297845554 Kcal/mole
 H      3.4357685897    -1.9600152898    -3.4490145614
 F      4.2164822631    -2.3060267154    -3.1148719967
 H      4.5035165013    -3.9690600712    -3.4157522742
 F      4.4044132282    -4.8289631637    -3.7184637089
          4
Energy: -6.257858803573981 Kcal/mole
 H     -0.0146849100    -0.3331504952    -0.7582166383
 F      0.2689879925    -1.2022902297    -0.6874013412
 H     -0.8966767605    -2.3269313085    -1.0967061161
 F     -1.6090671385    -2.8697031899    -1.2936518804
          4
Energy: -6.290567251333471 Kcal/mole
 H      3.9973617953    -4.6314122811    -3.3697051648
 F      4.8401053974    -4.7762723790    -3.0385137200
 H      4.9917880554    -6.4203617919    -2.6097945949
 F      4.8995571639    -7.3170812936    -2.4416381266
          4
Energy: -6.229902927875969 Kcal/mole
 H     -0.9708095056    -5.6355210218    -4.7605808017
 F     -1.2704763344    -6.3936452422    -4.3406564536
 H     -0.4787707139    -6.8425237376    -2.8865471682
 F     -0.0572255162    -6.9844891724    -2.0846528724
          4
Energy: -6.190952419640723 Kcal/mole
 H      1.4852621419    -5.5940644665    -5.8050268325
 F      1.3241430591    -5.8206353523    -6.6788662198
 H     -0.1589284080    -6.7297337961    -6.9423419370
 F     -0.8930788941    -7.2581583999    -6.7917447859
          4
Energy: -6.267946927504681 Kcal/mole
 H      2.3887939912    -3.9891739235    -2.7255899166
 F      2.5487837953    -4.8810102891    -2.8667287114
 H      1.3703193539    -5.9480752578    -2.3992186740
 F      0.6105220356    -6.3849843502    -2.1295754282
          4
Energy: -6.319368972729478 Kcal/mole
 H      0.7130452018    -7.2169724555    -4.0821627592
 F      1.4205970206    -6.6346339600    -4.0483796233
 H      1.9399312496    -6.3374314303    -2.4726762400
 F      2.0960091047    -6.2782234621    -1.5709982932
          4
Energy: -6.292255648262426 Kcal/mole
 H      0.0756502683    -6.1001140009    -3.9427299258
 F     -0.7327651601    -5.7326989608    -4.1715523098
 H     -1.2364812197    -4.5529373456    -3.0944645580
 F     -1.3154510434    -3.9070867450    -2.4482991236
          4
Energy: -6.322315270565184 Kcal/mole
 H     -0.9775363430    -5.5465821632    -5.3378538184
 F     -1.7304486180    -5.0898692589    -5.0820698680
 H     -1.5693413380    -3.8981596998    -3.8892696146
 F     -1.3123741351    -3.2944168740    -3.2486828079
          4
Energy: -6.313967779414099 Kcal/mole
 H     -1.4309946766    -5.7349216846    -3.7801601654
 F     -0.9974036922    -5.2247903423    -4.4067811607
 H     -1.0763895514    -3.5255534718    -4.1638918764
 F     -1.2485805746    -2.6668551962    -3.8920895161
          4
Energy: -6.326796828465206 Kcal/mole
 H     -0.5584731472    -5.4508030154    -4.9732181677
 F     -0.4160320273    -5.1437460177    -4.1209766951
 H     -0.7832643866    -3.5058484550    -3.8665180280
 F     -1.0159520564    -2.6199727551    -3.9108992485
          4
Energy: -6.327872873900162 Kcal/mole
 H     -0.5591987203    -5.4457712636    -4.9748921061
 F     -0.4159935373    -5.1440129405    -4.1208878965
 H     -0.7758920648    -3.5039441191    -3.8678683774
 F     -1.0163431410    -2.6200737757    -3.9108276156
