          4
Energy: -5.910860693943391 Kcal/mole
 H      1.0424131390    -3.8938418333    -1.9403529462
 F      1.1246368396    -3.1961387812    -1.3509984568
 H      2.1176173409    -5.9159974145    -2.8494898533
 F      1.3090498285    -5.5041064596    -2.7173784642
          4
Energy: -5.536674932141864 Kcal/mole
 H     -0.0203888042    -0.4593472882    -1.8684438421
 F     -0.5072705300    -0.8028253598    -2.5654789914
 H     -1.5145787398    -1.5479063187    -3.8576780890
 F     -2.0161839255    -2.1329541591    -4.3546692983
          4
Energy: -5.30427827779684 Kcal/mole
 H     -6.7599665951    -2.8285395092     2.1731633371
 F     -6.9286070617    -2.3885157664     2.9598198687
 H     -6.8055667807    -5.1231889147     0.9580978396
 F     -6.9706034596    -4.2230507287     1.0164342850
          4
Energy: 0.00785699752741209 Kcal/mole
 H     -1.2780326066     6.4895786167    -1.5138020590
 F     -1.1264132717     6.6142169770    -2.4095508276
 H     -6.3602279376     6.0132987749     3.3556838913
 F     -6.7129579213     5.7429458949     2.5535742486
          4
Energy: -5.844338827719241 Kcal/mole
 H      3.0036303381     1.4022424367    -4.0481346383
 F      3.1122324428     1.5930317663    -4.9384682918
 H      2.8315697133     3.2361033642    -5.0934742323
 F      2.6442576863     4.1258306217    -5.2125901913
          4
Energy: -6.141967615167232 Kcal/mole
 H     -1.4434579826    -0.0626014565     0.8520604503
 F     -1.9125811627     0.7031123070     1.0377884082
 H     -1.0036288878     1.3218988515     2.3169434393
 F     -0.3230229608     1.4811548082     2.9104938688
          4
Energy: -5.473750242044218 Kcal/mole
 H     -0.8061298364     5.5282678004    -4.0194888648
 F     -1.6001889723     5.8692755780    -3.7127759953
 H     -1.8548830134     4.4881486065    -2.7570914234
 F     -1.7635865463     3.7594561640    -2.2079454689
          4
Energy: -5.427091007923764 Kcal/mole
 H      0.6291401918    -0.6331548514    -2.4815389461
 F      0.5870253506    -0.4625797214    -3.3815497600
 H      0.8917854481    -1.4585976713    -0.4554060545
 F      0.3476728555    -0.8541900785    -0.8791063593
          4
Energy: -6.05865145720054 Kcal/mole
 H     -0.3918318306     1.9588306937    -1.7350014526
 F     -0.8670464885     2.6873283189    -2.0254343001
 H     -2.1744852228     1.9514756008    -2.7267417085
 F     -2.7610753226     1.2782394515    -2.9354379998
          4
Energy: -4.9306659086054765 Kcal/mole
 H      2.5071959284     0.0734073295     3.9227140612
 F      2.1415093477     0.7146996531     3.3787411939
 H      2.8064993137    -0.3095274260     2.1208572217
 F      3.1378161731    -1.0541386628     1.7005332459
          4
Energy: -5.500741765863268 Kcal/mole
 H      2.2033760539    -4.5226470261     4.4882050351
 F      2.4107156974    -4.2577514924     5.3412757405
 H      3.5842994466    -5.4204722415     2.7451364548
 F      2.6850123292    -5.4731091740     2.9166037512
          4
Energy: -5.659844269519368 Kcal/mole
 H     -0.0417089008     0.8966712993     1.3968828616
 F     -0.0905279586     1.0243471619     2.3036378305
 H      0.2041326632     0.7282345141    -1.2881086989
 F      0.1211339614     0.9844329250    -0.4115457578
          4
Energy: -5.571038597118843 Kcal/mole
 H     -3.6606301681     6.7202065745    -0.0131158520
 F     -2.8504729719     6.2916543524     0.0165035710
 H     -2.6666257050     6.6314443342    -1.6844182176
 F     -2.9081493803     7.1393627403    -2.4086931702
          4
Energy: -6.08254645732174 Kcal/mole
 H     -4.3757714368    -6.8134932413     5.9105379386
 F     -5.0792932548    -7.4009501475     5.9395281929
 H     -1.9551609958    -6.7237018544     5.8409851815
 F     -2.6874235994    -6.1725731119     5.8103651124
          4
Energy: -5.094546876445463 Kcal/mole
 H      2.7290106799     0.2969445720    -4.1171779804
 F      2.1216093503    -0.2200653408    -4.5695642921
 H      4.9493514261     0.3788292814    -3.0212527725
 F      4.1305309427     0.7359892892    -2.8142292358
          4
Energy: -5.682271940570047 Kcal/mole
 H      4.6489471925     2.1735526085    -1.9421270999
 F      5.2558277102     1.4878432688    -1.9909915938
 H      5.3545950084    -0.2604634560    -2.1252607834
 F      5.5175306377    -1.1514436485    -1.9820990661
          4
Energy: -5.693791326478959 Kcal/mole
 H     -1.7822665813     1.3697261364    -0.6868671500
 F     -1.9928961532     1.3373398452    -1.5787613766
 H     -1.2504662454     3.3333142927     0.3917564344
 F     -1.3847120111     2.4876296679     0.7199097365
          4
Energy: -5.67370298994669 Kcal/mole
 H     -1.9422784476     7.1291143126    -4.6699918351
 F     -1.0496294607     7.0394140837    -4.4802007525
 H     -3.9963742822     7.3746292812    -6.2264133718
 F     -3.4396372740     7.3913302563    -5.4979533653
          4
Energy: -5.882019871979651 Kcal/mole
 H     -1.6949244856     5.0339157563    -2.7337284104
 F     -1.7641382641     5.7986129028    -3.2350633553
 H     -0.2968995798     3.5602418729    -1.2277521246
 F     -1.0259397584     3.5980429644    -1.7826940093
          4
Energy: -5.899729962024935 Kcal/mole
 H     -3.0371679744     4.8907928437     7.1326476287
 F     -2.6760690416     4.1221450027     7.4785913486
 H     -1.5693172795     3.2645170344     6.2863690030
 F     -1.2579436755     3.0110322635     5.4619413533
          4
Energy: -5.10112245866344 Kcal/mole
 H     -3.9172216084     3.3587309775     2.2152589693
 F     -3.9682332326     2.5980172812     2.7247699961
 H     -4.0015956676     0.8026550723     2.7210134251
 F     -4.2450612775     0.0197387327     2.3103365423
          4
Energy: -5.680808574776279 Kcal/mole
 H     -5.1325235487    -1.9693898815     0.7265283642
 F     -5.2592148333    -1.1261474094     1.0638419447
 H     -5.5851813794    -3.2542226648    -0.8960567443
 F     -5.1922401920    -3.5449899209    -0.1202084176
          4
Energy: -5.761259501544629 Kcal/mole
 H      3.3088635283    -6.1364919059    -3.9936568425
 F      2.6811276264    -6.6858783215    -3.6128534764
 H      4.4871013710    -4.3140341323    -3.0208885863
 F      4.5655749552    -4.7694686526    -3.8129178120
          4
Energy: -5.524414855019813 Kcal/mole
 H     -2.7211111461    -0.8268805121     7.2669332611
 F     -3.0798364880    -0.9764279245     6.4363667673
 H     -4.1748540591    -2.0915446761     5.4555960602
 F     -4.7406940129    -2.8032512096     5.3364828495
          4
Energy: -5.983859709747151 Kcal/mole
 H     -0.9126852350     3.5458799841    -7.2029853352
 F     -1.4639715921     2.9148866104    -6.8304001572
 H      0.4252715078     5.0846117458    -6.5652734610
 F      0.0912707380     4.7974617491    -7.3695603285
          4
Energy: -5.86989329602423 Kcal/mole
 H      4.6741645025     3.6861319828    -5.9264634171
 F      4.1374005866     4.4253923989    -5.8472956468
 H      6.2150233383     2.9160422525    -7.3259988436
 F      5.8991862073     2.4782633871    -6.5847259035
          4
Energy: -5.700877934181278 Kcal/mole
 H     -3.4789380426     7.0899009986    -0.3517865836
 F     -3.5987993715     7.0021235853    -1.2566718733
 H     -2.0952863399     7.0560796481    -2.0312754256
 F     -1.3283454766     7.3024952685    -2.4694192995
          4
Energy: -6.196923944217929 Kcal/mole
 H     -5.1251788326     2.8311435739    -3.2177442402
 F     -6.0075634314     2.6001732973    -3.1231971556
 H     -3.3685047135     4.2356676535    -3.0605737437
 F     -3.5938433380     3.4405077558    -3.4578548046
          4
Energy: -5.647383445766366 Kcal/mole
 H      1.3481764061     4.4429112542     0.8603921760
 F      1.6176019336     5.3132661182     0.7565591561
 H      0.0732441483     6.4758398706     0.8363254705
 F     -0.8288821361     6.6292050552     0.8957921602
          4
Energy: -5.745176414072091 Kcal/mole
 H     -6.9781899278     0.8513183794     7.0989097854
 F     -6.1191291080     1.1362617355     6.9515639622
 H     -4.4436412072     0.7956265598     7.2641231109
 F     -3.5906779740     0.4602266199     7.2349751569
          4
Energy: -5.967385998014123 Kcal/mole
 H     -5.2656734139    -2.1311336348     3.7636748936
 F     -5.2042938727    -1.5937470996     3.0231769101
 H     -4.8713673214     0.0963807970     2.7523086745
 F     -4.6445319722     0.9712052984     2.9076045729
          4
Energy: -5.877689331509941 Kcal/mole
 H      2.6180996302    -2.3286864294     2.9309684157
 F      2.3049543045    -1.5802085663     3.3582972041
 H      1.8176748770     0.0190166183     3.2261353774
 F      1.5148631999     0.8503163565     2.9850237158
          4
Energy: -6.2306737344890735 Kcal/mole
 H      2.7653959757     1.2039465129     2.4108071956
 F      2.4769861733     0.3590803161     2.2012603144
 H      2.6603642247    -0.1959416039     0.5391415046
 F      2.8750862653    -0.2431805923    -0.3511123486
          4
Energy: -6.001695859850031 Kcal/mole
 H     -1.8515965171     2.5067292411    -0.9590821215
 F     -1.6397665839     1.8877105602    -0.3165613420
 H     -1.7140909338     2.9160922052     1.0309303879
 F     -1.6935602984     3.6613663238     1.5648161258
          4
Energy: -6.124244078629999 Kcal/mole
 H      2.5034089008    -5.0871025106    -0.5793296834
 F      1.6486316121    -4.7637664827    -0.6548187529
 H      1.3634130235    -3.5864007961     0.5310738857
 F      1.4671029853    -2.8805897390     1.1072406528
          4
Energy: -6.095698219838084 Kcal/mole
 H      4.1367940699     4.0094133456    -6.1684487656
 F      3.6228365738     4.6238887381    -6.6147185092
 H      3.6910900236     6.2914705986    -6.7041460987
 F      3.7027563490     7.2072566861    -6.7498488219
          4
Energy: -6.227387272213889 Kcal/mole
 H      3.2983436385    -0.3629173241    -3.0911034496
 F      2.3902743740    -0.3363318178    -3.2159730684
 H      1.4851807712    -1.7866517286    -3.2586312524
 F      1.0405371956    -2.5871583226    -3.3073168118
          4
Energy: -6.051884227595281 Kcal/mole
 H      5.6960960091    -5.7911392066    -4.6510782493
 F      5.7554071028    -6.5864793737    -4.1985241502
 H      6.0349594277    -6.4530376250    -2.5794116968
 F      6.1840000365    -6.0638271084    -1.7625940484
          4
Energy: -6.232485264573654 Kcal/mole
 H      7.4630262767    -2.7578898052    -4.9190163499
 F      7.3154332300    -1.8530164690    -4.9366100445
 H      5.7880584806    -1.7019352809    -4.2596684549
 F      4.9789892700    -1.8659565452    -3.8604278793
          4
Energy: -6.28120380969483 Kcal/mole
 H      4.6926360482    -5.6536419734     4.5284611487
 F      4.6116423907    -4.9166587457     5.0680765206
 H      4.1851483275    -3.5033220854     4.3256222177
 F      3.9623987186    -2.7940867859     3.7887266024
          4
Energy: -6.282950517099607 Kcal/mole
 H     -3.1062514597     4.8321380187     1.7900428404
 F     -3.6636804919     4.5748436547     1.1088956578
 H     -5.1489774548     3.9314609958     1.5121323494
 F     -5.9189414250     3.5580100687     1.8416454592
          4
Energy: -6.173774752118675 Kcal/mole
 H     -2.4745200481    -1.1046277967    -3.7368391005
 F     -2.6830377691    -1.0976201071    -4.6297894084
 H     -1.7616991414    -0.8297963029    -6.0454184680
 F     -1.2136658130    -0.7346803878    -6.7744599165
          4
Energy: -5.861662536439468 Kcal/mole
 H      6.1512514010    -4.8167715170    -6.9083368850
 F      6.7360754082    -5.4811050256    -7.1481928208
 H      6.8758670445    -6.9401866512    -6.1227682844
 F      6.9484808936    -7.4191341381    -5.3441634208
          4
Energy: -6.170879564771269 Kcal/mole
 H     -2.2857772103    -3.6545562871    -0.3377005883
 F     -2.0545193667    -3.5972929570    -1.2232115825
 H     -1.4867523454    -5.1696399135    -1.5728935079
 F     -1.1981051123    -6.0248334306    -1.4109804971
          4
Energy: -6.225622113571944 Kcal/mole
 H      1.7488448086    -1.9244897143     3.0493472867
 F      1.9540809307    -1.3211490398     3.7087008829
 H      0.7922596687    -1.0198441643     4.8403114889
 F      0.0644823367    -0.8685130815     5.3772733669
          4
Energy: -6.266807930986772 Kcal/mole
 H     -1.6692125736     3.2030706773     3.4372136028
 F     -1.6478167454     3.0288850054     2.5371632874
 H     -0.4891948702     3.7557291649     1.5306891441
 F      0.1463343148     4.2864063817     1.1365148849
          4
Energy: -6.2760305303360155 Kcal/mole
 H     -1.5624970680     2.4920840125     5.6451887396
 F     -1.1123938393     1.9301452678     6.2130980024
 H     -0.4754130438     0.4288143518     5.6623887032
 F     -0.1576336847    -0.3415214887     5.2796512321
          4
Energy: -6.305807785592151 Kcal/mole
 H      0.0809309451     6.5140019731     5.3744954462
 F     -0.2711597815     6.4835113579     6.2206582217
 H     -1.9185101646     6.8973681183     6.4139790195
 F     -2.7982085285     7.1555008884     6.3943000555
          4
Energy: -6.293883023252022 Kcal/mole
 H     -0.5189631848     4.7592406309     4.6493591670
 F     -1.2329324206     4.1838359561     4.6425481078
 H     -2.5115045744     4.7512122204     5.5686539967
 F     -3.1337259021     5.2107692696     6.0611343903
          4
Energy: -6.327907519021892 Kcal/mole
 H     -0.5920604176     4.8346900575     4.4282278837
 F     -1.2183602493     4.1955515971     4.6285764531
 H     -2.5184085527     4.7476156824     5.5633818161
 F     -3.1333596620     5.2109600576     6.0614140673
