          6
Energy: -3.030783297444203 Kcal/mole
 Xe    23.6278910034    37.7411152882     1.2862139532
 Xe   -32.4254742677   -25.4022253325   -27.2009576943
 Xe   -31.4974734847   -27.6068232190   -23.4749350994
 Xe    25.4272533585    38.0588940323    -2.7350023782
 Xe   -34.8125796907   -28.9316588812   -26.0729065293
 Xe   -35.1834794667   -25.1980869707   -23.7513012087
