          6
Energy: -3.1286961878334717E-4 Kcal/mole
 Xe    -1.1211827167   -16.1704556745     8.7044869096
 Xe     5.5481525876   -31.5918299558    19.9197192756
 Xe    15.6731372636   -19.6106250813    28.9810784675
 Xe     2.3547790279   -19.7352430315   -19.4985545755
 Xe   -31.3214733901   -25.3571407105   -30.4022358909
 Xe     7.4202187150    30.7697652470     8.4436948882
          6
Energy: -1.0124977691391003E-5 Kcal/mole
 Xe   -41.2249427707   -39.8900304466   -30.8643201227
 Xe     7.6038571329   -16.4627712695    36.8315910981
 Xe    -9.9824351201   -38.8021045239    19.5706199365
 Xe     1.8757285864   -34.2609200396   -20.6235974113
 Xe    -9.1151191592     7.4949178921   -18.5650725770
 Xe    32.1263012985     7.4872814856    12.4589732762
          6
Energy: -0.27798815298865537 Kcal/mole
 Xe   -11.1797399315   -12.1321762499    -8.5401154686
 Xe    30.3915097596    33.9040420830   -29.9466587143
 Xe   -11.8397594680    18.2428297446    36.0048166823
 Xe    -6.1765251139   -10.9903003486    -8.2134944122
 Xe    -7.7645482815    14.8003160778   -22.0147736061
 Xe    19.1973796744     3.8634143788   -20.6110165081
          6
Energy: -0.4328274225669324 Kcal/mole
 Xe   -16.5851407529   -32.3676321113     5.8311256507
 Xe    25.9720007336    29.3437112009   -30.6092030183
 Xe   -19.3429708459     6.3374264636    39.8606627619
 Xe    14.4593016561   -31.3900626746   -17.3024268270
 Xe   -12.4845769389    31.4371333737    -1.2135417322
 Xe    22.1713063787    29.9584397006   -28.4747360502
          6
Energy: -4.940299158691703E-4 Kcal/mole
 Xe   -33.8218038836    38.2623229267   -18.7131254561
 Xe    23.8078395886    33.3928689864   -31.2857806458
 Xe   -11.0344734628    12.5124155934     8.3719222843
 Xe   -10.8740762781   -38.0708197732   -31.5161911850
 Xe   -26.8025154638    27.8718269662    -9.1526929786
 Xe     2.9015506272    37.1371286781   -36.6426080982
          6
Energy: -0.31309839677762297 Kcal/mole
 Xe   -28.6858886235    23.7620347867   -30.2434885472
 Xe    24.0109196592    25.5918492593   -35.0463330618
 Xe   -30.4152761838    37.5133354606    -1.6626021919
 Xe   -11.3568731921   -17.6244639515    -7.5870305442
 Xe   -32.5064120759    37.4504794891    -5.2076460665
 Xe    -1.5406399278    28.8977536715    -1.1066421571
          6
Energy: -0.012590109137938479 Kcal/mole
 Xe   -40.8653278198    26.8169712011   -16.0770985072
 Xe    40.1492268075     0.7740088770   -19.2863803612
 Xe   -33.6291896278    33.9495413366    -1.0399716619
 Xe   -12.4904047495   -25.9926622560    25.8494948813
 Xe   -40.0535799368    40.1730317932    -0.4806405408
 Xe   -18.6328054658    -5.4618798900   -21.0158497752
          6
Energy: -8.866438736917035E-5 Kcal/mole
 Xe     3.6359320840    27.0342108884   -34.4735614366
 Xe    15.2813793231    -8.3575317189     4.7741152841
 Xe   -33.9033694862    39.2255922338    -3.5366025811
 Xe   -31.7093850532   -26.5052401691    37.1070557629
 Xe   -24.3705206698    40.8635587509    14.5883316461
 Xe   -38.7861121199     8.5770435163   -32.9723334290
          6
Energy: -0.33823666143117065 Kcal/mole
 Xe    38.4431233054    32.4483360521   -19.9867479053
 Xe    27.1582368005   -29.4939917295     2.6526481917
 Xe   -18.0056060247    39.7025998501   -25.0514801858
 Xe   -39.4859897880   -35.8638429598    18.4229500413
 Xe     9.3404546927    23.2413333569    -5.6200978810
 Xe   -17.6767324420    38.4282212181   -20.3247375179
          6
Energy: -1.299013101966743 Kcal/mole
 Xe    19.9032592270    36.1466088681   -21.4667776768
 Xe    -4.4028512999   -20.6795510569     7.5502163192
 Xe   -17.0081969028    40.1200786039   -24.4197875153
 Xe    -8.2478062030   -22.8399381449     7.3099583394
 Xe    16.5010639060    33.4616752436   -20.6157611964
 Xe   -17.4583893641    38.2291793044   -20.4536476008
