          6
Energy: -3.948627344581956E-4 Kcal/mole
 Xe    -6.4331135652   -17.2440988534     0.3863751603
 Xe   -15.9227135276   -21.2551305963    14.8601673646
 Xe    14.6724504574     6.0085733574    -5.0166533633
 Xe    -7.9565231444    10.7464045162   -24.3063939675
 Xe   -25.6117271129   -18.7484162058    -4.7802270245
 Xe    24.3537877311    15.4446013473    21.0804022535
