          6
Energy: -7.295037566155748E-4 Kcal/mole
 Xe     9.8656042310     1.0349532659    40.0490609773
 Xe   -25.0581611531    24.3287894836    11.2070143224
 Xe   -21.1301080931    -0.1896896330   -28.5998085811
 Xe   -19.6866656932    17.7273346044   -31.2858432958
 Xe   -10.5953818005    28.4624315561     9.6429582658
 Xe    16.5937230813    23.1007652500    -4.2153327157
          6
Energy: -0.3626039753036408 Kcal/mole
 Xe   -11.4623220482    -5.5366097587    25.5358123917
 Xe   -26.0106209203    -3.4208081018    -1.4176593100
 Xe   -40.1056893663    35.6517393837     8.2264698431
 Xe   -15.9668844458    35.3649388241   -20.8671086984
 Xe   -20.5838538009    34.4417233008   -21.8691290334
 Xe    13.7553994180    27.8136186414   -21.8973899165
          6
Energy: -4.1826379790929483E-4 Kcal/mole
 Xe   -19.0535946528     3.2678709118   -20.9875776808
 Xe   -30.8119271980    -9.6363515224   -27.8406771469
 Xe   -31.6967674362    40.5600761996   -10.4138165693
 Xe    -6.5964562113    25.1256599769   -29.3250053668
 Xe    -9.0944681832    41.2295912341   -35.7589108559
 Xe   -20.2817211253    31.5791608644    12.6756428283
          6
Energy: -0.01030913480686609 Kcal/mole
 Xe    14.7656495023    -8.2496711928   -26.9759800142
 Xe     0.0076068676    15.6368966984     1.6847580987
 Xe    40.5281876135    31.1206785979   -10.2129586112
 Xe    32.1710058666    34.0345923868    -7.3694561053
 Xe    21.6978648213    32.7032267583   -19.9951110676
 Xe   -16.2385681113    -0.9230400160    40.8377469683
          6
Energy: -0.5494564938781001 Kcal/mole
 Xe    38.4442369462     0.8057182739   -14.7918591902
 Xe     1.1574271266     4.7246059790   -16.8975681484
 Xe    37.0770360090    31.1200740381   -13.7023994629
 Xe    36.2429181577    30.3805431876    -9.7537647202
 Xe    35.4342630838    36.0731447279   -10.0750137294
 Xe    16.1646686891    -4.7838440882    13.8618827963
          6
Energy: -2.032630202004291 Kcal/mole
 Xe    23.2651072869    35.7829686041    -7.3036690792
 Xe    21.7681788833    34.4447818629   -37.2246752846
 Xe    23.0309452140    35.2704054277   -11.8130967671
 Xe    26.6678095493    36.5832158323    -9.9673440591
 Xe    24.7928947600    39.9239673861   -11.5171479262
 Xe     5.7904645899    -2.3813797257    30.3120205897
          6
Energy: -2.2468743298313516 Kcal/mole
 Xe    24.4913271440    39.7610388720    -6.3261071530
 Xe   -29.3076472770    21.0545393290    -4.4848090109
 Xe    20.5573387168    37.5752038319    -7.4902417417
 Xe    21.1061852912    39.2338830147    -3.4011568558
 Xe    24.4867197368    35.5684779318    -4.9777749916
 Xe    23.3336418956     8.0437457702    23.0448252527
          6
Energy: -2.4644087708675664 Kcal/mole
 Xe    20.5769471484    31.1824737311   -10.1209445376
 Xe   -40.6662041884    32.2192891379   -22.6434543174
 Xe    17.3182532984    32.7715126115    -7.3275088248
 Xe    20.3468351015    30.1482086405    -5.6012231265
 Xe    17.2250206025    28.8157450997    -8.6875318003
 Xe    17.4898188543   -28.8909539807    25.8472293189
          6
Energy: -2.540445000347734 Kcal/mole
 Xe    23.3584192831    31.9132770235   -10.4641028807
 Xe     4.2622500849    -0.0875287708     1.2849174146
 Xe    20.7529589328    34.8896655705   -12.7569264471
 Xe    19.2799075719    32.7817839498    -9.0993895834
 Xe    19.5730337012    30.5904934184   -12.8700632389
 Xe    11.0400405638   -17.9674020142    12.4021529827
          6
Energy: -3.030795148405365 Kcal/mole
 Xe    23.2875859238    31.8358971755   -10.6628816140
 Xe     7.5575429978    -3.3698025494     8.3030561676
 Xe    20.7866744375    34.8515578722   -12.6948188845
 Xe    19.2799075719    32.7817839498    -9.0993895834
 Xe    19.6956108989    30.5703045108   -12.9071840013
 Xe     9.8401173643    -6.8915758752     9.6794535447
