          6
Energy: -3.03080690204555 Kcal/mole
 Xe    14.5962389704    12.8810208131    11.1824251709
 Xe    15.8023061261    11.1707956076    15.0627334244
 Xe     0.6494916683    31.6160872094   -22.0957338354
 Xe    -3.3981646595    29.9489494476   -21.5078329611
 Xe    12.1283879667     9.7463507476    13.0770917956
 Xe    16.0769764151     8.7202919704    11.3835117707
