          2
Energy: -2.7592492615276204E-5 Kcal/mole
 He     4.4161343782     2.9777076369    -4.8732325287
 He     3.0215306774    -4.5067844780     1.0584625277
          2
Energy: -3.1217171970684535E-5 Kcal/mole
 He     6.2070741613    -1.5907699716     3.6896434556
 He     4.7327475659     6.5342533387    -0.9149284777
          2
Energy: -4.206738020963581E-6 Kcal/mole
 He    -6.9808792712    -6.7373125819     4.6700225512
 He     3.1807723790     1.3145331773     2.1623978302
          2
Energy: -8.439999682776352E-5 Kcal/mole
 He     2.4472306160     5.5572694031     0.1602348729
 He    -2.3917827218     2.3416926935     5.6735964575
          2
Energy: -1.047119334953402E-6 Kcal/mole
 He    -4.0880915580     0.8510302704     5.9804812249
 He     6.7823580045    -4.3161986314    -5.5238101077
          2
Energy: -8.778000310064665E-6 Kcal/mole
 He     1.9962126791    -7.4688255385     0.0603330024
 He     2.7998605872     2.8405627364    -5.3738381625
          2
Energy: -2.390133810383101E-5 Kcal/mole
 He     2.2347075456     1.1823798648    -5.8393437298
 He    -5.5815371190     6.4685761496    -2.8933465625
          2
Energy: -1.6608377195898062E-5 Kcal/mole
 He    -0.0549957922    -5.8644921858     4.6398728073
 He    -1.5901886412     0.4165455111    -3.6376928723
          2
Energy: -8.461522024801562E-6 Kcal/mole
 He    -0.0911225450    -7.2284367033    -6.6733779892
 He     5.4531183394    -5.1052907249     3.4702844539
          2
Energy: -0.019999999872392284 Kcal/mole
 He     2.5193145860    -5.3239785673    -1.8477197342
 He     2.7214342929    -4.9022840739     0.9829645836
