          2
Energy: -0.0012351970723393994 Kcal/mole
 He    -0.5193030251    -0.3024601717    -3.2857849135
 He    -1.2662303422    -4.9827376444    -5.1925411734
          2
Energy: -1.1010786876880717E-4 Kcal/mole
 He    -1.9509812797    -0.2724082640    -0.6256765479
 He    -4.7030549556    -7.3424288643     0.4450527116
          2
Energy: -3.3834619766358136E-5 Kcal/mole
 He     0.9321755794     2.4482905157     0.6358857026
 He    -1.0249238967    -4.5156120893     6.5263309823
          2
Energy: -6.77248859732378E-5 Kcal/mole
 He     0.5298084658     0.5309719562     2.4262646154
 He     0.1443906293    -5.8120997213    -2.9271286894
          2
Energy: -0.011304240271311088 Kcal/mole
 He    -1.7726667540     0.4401905008     2.1466266272
 He    -4.8828423974     0.5907675115     0.7007986814
          2
Energy: -3.870866526583134E-6 Kcal/mole
 He     0.8335276352     5.9594934113    -3.2940634098
 He    -5.1499722385    -3.4978740741     4.0571340872
          2
Energy: -1.910480300442178E-6 Kcal/mole
 He     5.6729688729    -6.7761872378     4.0981391840
 He    -5.7744337833     2.9245413005     5.4087792013
          2
Energy: -6.330539428650713E-6 Kcal/mole
 He     5.8733969140    -0.6127737275    -5.8527522242
 He    -5.1791316309    -0.5528623800    -0.3748702387
          2
Energy: -1.5666318014453318E-5 Kcal/mole
 He    -3.7719387082    -0.4506100855     2.7896242247
 He     2.5519176878     7.0387851400    -1.2616834829
          2
Energy: -0.019999999987531016 Kcal/mole
 He    -3.4759958384     2.2899492467    -2.3250150397
 He    -1.1274579822     3.9355553024    -2.2382632421
