          2
Energy: -3.0193689980705787E-5 Kcal/mole
 He     5.7065766568     4.1229287575    -5.7740687451
 He    -0.6275879083     7.4072347979     0.5094530008
          2
Energy: 0.008090344111896436 Kcal/mole
 He     4.8330624542     4.7204338034     3.1841518319
 He     4.0565445227     3.4679740671     1.1417182414
          2
Energy: -3.1203343082910496E-5 Kcal/mole
 He    -6.7827778099     6.1702224385     1.5614932220
 He     1.7835760318     2.1738433153     1.3346230268
          2
Energy: -3.1316515653872346E-6 Kcal/mole
 He    -4.7349267748     6.9682220237    -6.6926451782
 He     4.7633089207    -0.5806241436     0.0308763547
          2
Energy: -1.0907889967182839E-5 Kcal/mole
 He     4.3733258208     7.1051308370    -3.5944766100
 He     6.1218163239     0.1658864308     5.1070170618
          2
Energy: -3.517605891748441E-5 Kcal/mole
 He    -4.7795269161    -3.7864156365    -3.5013722763
 He     4.4750553452    -4.2629480570    -3.6689581635
          2
Energy: -5.272578022281908E-5 Kcal/mole
 He     2.0801071609    -4.2832097559     2.8251615466
 He    -5.2875726046    -1.0803256745    -0.4174010895
          2
Energy: -1.036520499348605E-5 Kcal/mole
 He     4.7488701651     6.4357779708    -0.2653470731
 He     3.2238638449    -3.7520728716    -5.0597428270
          2
Energy: -2.6996610102690272E-5 Kcal/mole
 He    -5.2949518913    -4.9689147788    -4.4732246820
 He     0.9091386610     2.3523814519    -3.1556456291
          2
Energy: -0.019999999988703058 Kcal/mole
 He    -2.0026978265    -1.8660597293    -3.0764229159
 He     0.2146560326    -0.4201605623    -4.1827725896
