          5
Energy: -0.004847469133784128 Kcal/mole
 Ne    -1.3380720256     1.4063743218     6.9643199748
 Ne     5.7399950393     5.9023741790     2.5727168764
 Ne    -0.2477817068     1.7278492403    -7.3847681729
 Ne     7.1693952766    -6.6570869343    -3.2302725607
 Ne     4.9604684441    -1.5849408921    -5.5765770459
          5
Energy: -0.0060568443105159285 Kcal/mole
 Ne     6.9358945134     1.4618354039    -3.3521026235
 Ne    -7.2095438120     0.5022353748    -1.1480250917
 Ne    -6.7702833677     5.0382242559     2.1220816762
 Ne     1.2577549044     0.5830163598     1.2596671913
 Ne     5.2313045756    -2.4952424510     7.0076627578
          5
Energy: -0.0042543716018253455 Kcal/mole
 Ne     3.9177135633    -3.7425141113    -1.2642042529
 Ne    -0.5565289852     1.4787030052     3.8338180986
 Ne    -0.3907910053     7.0514167999    -0.7810269559
 Ne     6.7733167862     4.3086314173    -2.8371376222
 Ne     0.5398167377     0.8629137623    -5.7884184667
          5
Energy: -0.1095299194986106 Kcal/mole
 Ne    -2.1167890150    -2.4284650449    -3.7834049538
 Ne    -4.5235001223     0.4176298916     2.0554647689
 Ne    -3.2992946001     6.2593676391    -6.3104999378
 Ne    -5.4897532479    -5.5542722194    -2.6040409992
 Ne    -3.0023432567    -4.8485756726    -1.2915267356
          5
Energy: -0.10636040203030162 Kcal/mole
 Ne    -2.8211532031     6.4148136006     0.8378464692
 Ne     4.2545501097    -0.6051608061     6.0164252271
 Ne    -5.4616303163     2.0563991520    -6.2984118081
 Ne    -4.7812959803     5.6047152918     3.4612371294
 Ne     1.7903057088    -1.9299918541     3.7532577467
          5
Energy: -0.004535280118952105 Kcal/mole
 Ne     3.2136683261     5.4357669601    -0.5982013809
 Ne    -4.0327020228    -5.7979338899    -5.1911374158
 Ne    -6.3274858919    -4.2375467816     0.8919281922
 Ne    -3.7733895379     6.6815270718     1.5994190568
 Ne     5.9287548775     0.1853030133     1.3904630596
          5
Energy: -0.12404333499023426 Kcal/mole
 Ne    -2.1307657853    -6.7557938759    -4.8299834776
 Ne     5.3524987327    -4.6575007874    -2.0998182075
 Ne    -2.2998491326    -5.5471634079    -1.6347195686
 Ne     0.2516698824    -3.7676342224     0.9575768432
 Ne    -4.4971157345    -3.4435392563    -5.2043927158
          5
Energy: -0.00150336452804098 Kcal/mole
 Ne     6.5586564880     3.9281628809     4.8274458481
 Ne     7.3269363210    -2.1792702723    -5.7073252606
 Ne     0.6883155882    -4.9241630717    -2.9622027606
 Ne    -4.0672188256     1.5679939265    -5.4456319930
 Ne     7.2465958897     6.9372745269    -4.3364066624
          5
Energy: -0.3494365759215494 Kcal/mole
 Ne     0.7573885001    -1.7612884589     0.9843278010
 Ne    -2.4099453060    -3.3177156496    -0.9825529976
 Ne    -2.1270278901    -0.0314901442    -0.1523883373
 Ne     3.8485433448    -3.4350120067    -2.7436717934
 Ne     0.8654808047    -2.9479290382    -1.7925447151
          5
Energy: -0.6279703229532704 Kcal/mole
 Ne     0.2790645391    -1.7950819989     1.0256260588
 Ne    -1.8026814888    -3.4724720739    -0.5706893752
 Ne    -1.3882705830    -0.4707977655    -1.2372157329
 Ne     0.9200289795    -4.7283011924     0.2344636259
 Ne     0.8273091605    -2.5224027158    -1.9757690469
