          5
Energy: -0.013401006651524492 Kcal/mole
 Ne     1.5525644664    -1.4996382408    -4.1580984694
 Ne    -4.3139143916     4.9936955973     0.4000100955
 Ne     3.7422432997     3.2644830176     0.0191165427
 Ne     0.5509907486     4.1349312097     4.5705986043
 Ne     3.0233200632    -2.0150869238     2.4326212674
