          5
Energy: -0.6279234787674195 Kcal/mole
 Ne    -3.6242210118     5.1477587853    -2.2107717590
 Ne    -2.2645368370     4.7342998812     0.5616720392
 Ne    -0.5282420362     4.7685338428    -2.0181988366
 Ne    -2.4185504383     2.3700894580    -1.4413616154
 Ne    -1.8558546862     7.4111312718    -1.0000268979
