          6
Energy: -0.2540954090024618 Kcal/mole
 He     5.7392317093    -2.6193036222    -3.1696298915
 He     4.7414126108    -2.8796699965    -7.0916536774
 He     6.9740353352    -3.7285720217    -5.5174404496
 He     4.3134944126    -4.4907025237    -4.7972704213
 He     3.5033862716    -1.7508245610    -4.7554826360
 He     6.1558805013    -0.9997938326    -5.4793859567
