          6
Energy: -0.018308861254643344 Kcal/mole
 He    -2.0323742744    -0.3086882114     4.4255468839
 He     3.8423843713     3.9519846673    -0.6675310745
 He     0.6499335914     4.7068576627    -0.6492805869
 He    -4.7309375131     5.0142774749    -6.1568554765
 He    -0.8062190056     0.5103053805    -1.4049366305
 He     1.5528706582    -1.2848096573    -7.3321049520
          6
Energy: -0.025863328726833782 Kcal/mole
 He    -2.6164616632    -0.4053285014    -6.0223434025
 He     1.9234096477    -3.1949481333    -1.5060590928
 He     3.8102245325     3.5556338035    -5.7468439852
 He     2.8912226917    -1.9238480167     1.5001371337
 He     4.7744777570    -6.9822921405    -0.5769880879
 He     4.0729753759     1.0204160091    -3.2251409929
          6
Energy: -0.0014867839454246925 Kcal/mole
 He     2.0287198205    -4.9866978323    -6.3365391556
 He    -2.9612141216     5.9209039956    -5.4418202728
 He    -4.3215278539    -4.0150130331    -2.4341629853
 He     5.0560073625     1.1903169694     5.5050737363
 He    -6.8989119546    -1.6586093283    -6.4638662345
 He     6.4203809329    -4.1903568055    -1.1220408133
          6
Energy: -0.012040277660390732 Kcal/mole
 He    -6.3792025682     3.9119839881     6.8481756026
 He    -4.0505810142     1.7683219885    -5.7190700050
 He     6.5640650156    -2.0033709122     4.0878085438
 He    -4.3378304020     0.2933800133     2.8058797745
 He    -7.3896398371    -0.9238193682    -3.0041837941
 He    -1.4098555763     0.2520221132    -3.8461702505
          6
Energy: -0.010214904131084735 Kcal/mole
 He     0.2296633864    -2.7764469067    -4.6504905684
 He     4.5462063836    -6.3874919031     2.1696183925
 He    -3.3796860758     6.4078385346     1.8889611713
 He     3.2073312978     1.4238021000     7.2447440014
 He     2.0351007241    -3.3633218318    -1.3982178335
 He     0.1710988891     5.2613318561     6.4208027275
          6
Energy: -0.007517269474370262 Kcal/mole
 He     1.6434619567    -2.9070866658    -7.4237641187
 He     5.6489693724     7.3386962358    -6.4473785014
 He    -6.2400084719     7.2065689387    -2.1852173852
 He    -3.8709380604    -1.5991354548     6.5584494057
 He    -6.7859462079    -4.0134012677     5.9150487139
 He    -7.1670298916     2.6650966025     7.0586899519
          6
Energy: -0.026822941054268433 Kcal/mole
 He     3.8807461867    -1.9491775947     7.4367229919
 He    -2.2863481337     2.0469713329     4.7804301936
 He     4.2726463856     0.7546848357     1.4819960138
 He    -1.6571760394     1.5441042417     0.7724817427
 He    -2.2007213763    -2.4997198694     3.9357669280
 He    -4.7588226029     0.5283664349     1.1159906340
          6
Energy: -0.06356281257228971 Kcal/mole
 He    -5.0513349167    -4.0126306387     0.6005209920
 He    -7.3574652565    -4.7348501863    -1.0387427133
 He    -4.0979329643    -6.2708448420     4.4115247909
 He    -3.9909789271    -2.4791008223    -2.4801749479
 He    -7.1692025392    -1.6671227903     0.6998285070
 He     2.9358916856     6.9685840785    -1.5417710380
          6
Energy: -0.22797786817679708 Kcal/mole
 He    -0.6869564598    -2.5011266103    -5.9274473445
 He    -2.0527276440    -2.4370701651    -1.1987834912
 He    -1.9782958384    -1.0250443792    -3.7069746961
 He    -1.6493422336    -3.9122238095    -3.4766776275
 He    -3.6614032202    -2.3783176239    -5.5105034743
 He    -4.2665003509    -3.0967600343    -2.9459682237
          6
Energy: -0.24593357770654609 Kcal/mole
 He    -0.4418525507    -2.2063030168    -5.5154734158
 He    -1.9404593165    -2.4508625541    -1.0720163827
 He    -2.2009027014    -1.0932642159    -3.5598236940
 He    -1.4884481095    -3.9219335834    -3.4782309390
 He    -3.2036771871    -2.9129325546    -5.5411125484
 He    -4.1328440354    -3.0706683306    -2.8378728643
