          6
Energy: -0.0029979082752965547 Kcal/mole
 He    -2.2469333416     2.6233269674     3.6014792853
 He     4.9397387177    -0.0373011884    -6.8874757707
 He    -3.7076081359    -5.9073032559    -5.7338203874
 He    -4.8492060302    -2.7101874096     0.0452701065
 He    -1.5479513614     5.8221799995     0.0814836838
 He    -1.6632980333    -4.8040181371     4.5048303921
          6
Energy: -0.0014942152309075705 Kcal/mole
 He    -4.2348908780    -7.2305503077     0.7185830087
 He     7.0420815735    -0.6575095006     5.4647423644
 He    -2.8783940995     5.0349490130    -7.0823038022
 He     0.7529171109    -4.8103834832     2.9829548757
 He    -0.5222275181     6.6887418334     0.4823794945
 He    -5.1817446124    -5.1953686723     6.0969457507
          6
Energy: -0.006885901683333803 Kcal/mole
 He    -6.5359905446     5.5821202344     2.7197564650
 He     5.3478999390    -4.5324321846    -6.0900209043
 He    -1.4074071325    -6.2954076242     5.1689361151
 He     2.0719644104     5.8962384611    -2.4191605848
 He    -2.8891315259     4.6397284694    -7.4454563366
 He     2.3165597177     5.1678690860    -6.2590005608
          6
Energy: -0.00301866179202184 Kcal/mole
 He     5.9946603175     6.0400765124     4.1812925425
 He    -3.7296994015    -5.3930470641     0.5134535571
 He    -0.5157662707    -1.6732248619    -3.8555244166
 He    -5.1280598496     6.2923169687    -3.5591556126
 He    -2.9844362154    -1.4511925269     5.9798771419
 He    -3.3284131816    -1.3960179831    -7.4647955829
          6
Energy: -0.007573854502363138 Kcal/mole
 He     1.6910650445     1.4654040144     3.7428520294
 He     6.9292018698    -6.4297682268     0.1394827944
 He    -1.2777757694     2.5414896850    -6.0918671111
 He     2.9678376341     0.2587215105    -4.1838637799
 He     2.0261518694    -0.5436203195     7.2227648798
 He    -3.0500846099    -1.2786274023     4.5659020287
          6
Energy: -0.025717587700479806 Kcal/mole
 He    -0.5232856577     5.3753104542     4.5936028441
 He     3.9461035535    -2.7631664782     1.6236109645
 He     6.9334894536    -3.0494648159     2.4183927957
 He     4.0642269788     3.5335695531     6.5245195729
 He     3.9812226145    -4.3913962014    -1.8537716773
 He    -6.7378734200    -0.3119423923     4.5080248917
          6
Energy: -0.0022797295878215734 Kcal/mole
 He     5.2384444143     7.2048010955     3.1348336520
 He    -2.0076750152    -7.3233725442     7.4446936468
 He    -1.3158387417     0.6090234944     7.2207718602
 He     2.8380233788    -7.3586213087     1.5456518164
 He     3.0502814582     0.3917391234     5.1573132536
 He    -1.4712262155    -3.8482647984    -4.1972331352
          6
Energy: -0.025635197031801164 Kcal/mole
 He    -4.7782712530    -5.7636086502     0.6757829221
 He     7.2199214614    -2.0385312127    -3.7137219035
 He     5.6953388640    -0.5759419663    -5.7446735452
 He     2.1794391608    -6.1611919719    -0.9421146205
 He     4.0952350091     4.7152824068    -1.2126242089
 He     1.3584304486     6.5818517047     1.0017405773
          6
Energy: -0.22212435268099973 Kcal/mole
 He     5.0911177824    -0.2386782823    -1.4247618741
 He     3.5675884927     2.3750275236     2.1140145943
 He     2.9773386449     1.1633388416    -0.2475376640
 He     3.3236738781    -2.0155748622     0.3112278838
 He     2.7993122858    -0.2477568857     2.4834067399
 He     5.4420087350     0.0714029624     1.3928339952
          6
Energy: -0.24596197059661246 Kcal/mole
 He     5.0527174877    -0.5403328697    -1.4403727995
 He     3.9434246245     2.4254568212     2.0465755768
 He     2.9339436858     0.7699733561    -0.0415831381
 He     3.5468835393    -1.9617596473     0.5567004641
 He     2.9000200034    -0.1822707841     2.6749493231
 He     5.4044391335     0.0840013397     1.3109298603
