          6
Energy: -0.0030729586168554124 Kcal/mole
 He    -1.3713980190     2.8090590161     3.5831825199
 He     1.2849617997    -2.9002949110    -3.9310444175
 He    -4.5785398917     0.1126217568    -1.8470843305
 He     3.4005509130     4.6000817366    -4.4359464311
 He     3.3343508932    -0.3828362754     2.3914647812
 He    -2.7606167467     4.9232614919    -3.0151250687
