          6
Energy: -0.24582656303508243 Kcal/mole
 He     0.3373053198     3.8509687537     2.4159357385
 He     3.8530496872     1.8436209625     4.7285097423
 He     3.1207949593     4.0131169723     3.0234249274
 He     4.5231253324     1.7982231795     1.9468468295
 He     1.8089527865     1.4411650199     2.7098886572
 He     1.2707748977     3.0704977233     5.0057549309
