          3
Energy: -9.018720550903599E-5 Kcal/mole
 He    -1.3395308531     5.6049050236     2.2594775672
 He    -0.1769659363    -6.5241423805     1.0052232097
 He    -6.2417978447    -6.1071291571     6.3398113809
          3
Energy: -9.892390195228314E-5 Kcal/mole
 He    -4.5401899880     0.1035646657    -3.8128044851
 He    -1.8902729922     7.4976210718     4.9546675920
 He    -2.3429109070    -7.2624987354    -5.7418640408
          3
Energy: -4.7064115584698684E-4 Kcal/mole
 He    -5.5464329212     2.6810080792     2.4408806476
 He     5.9138388837     4.3816485658     2.7988892328
 He    -1.5821287747     5.1601273945     6.4855706553
          3
Energy: -3.814856946918757E-5 Kcal/mole
 He     6.4985405163     5.3448438082     4.5549118473
 He     6.7845348518    -7.2948384535     1.2172583730
 He     2.7431162189    -5.2893417555    -7.0230792827
          3
Energy: -3.500944214685638E-4 Kcal/mole
 He     4.5448605643    -2.5731112869     4.1289991543
 He     0.9440775140    -5.9357131209    -0.1660192581
 He     7.0661487091    -0.7894267224    -4.8707485670
          3
Energy: -6.0179244369600856E-5 Kcal/mole
 He    -5.5106785105     0.5078405739    -1.2746167592
 He    -6.9725544135    -5.7967668541    -6.8937006255
 He     7.3203875598    -7.3531051247    -3.4659847397
          3
Energy: -2.0383090992527652E-4 Kcal/mole
 He     6.7278218211    -5.7384883371    -3.2626136737
 He    -7.1100469546    -1.1700112023     3.7586561963
 He    -6.4072669284    -0.2962108989    -3.0859040849
          3
Energy: -3.82693832639703E-5 Kcal/mole
 He     4.0256679883    -1.2617916161    -2.3785234540
 He    -4.1783705122    -2.4486573198     5.6383173886
 He    -0.9552535723     7.3104622981    -0.7549242238
          3
Energy: -3.276599342104063E-5 Kcal/mole
 He     1.6460695022    -6.6831252554     4.6394577041
 He    -6.9565566751     3.8750358077    -4.5428792817
 He     3.5303077132    -5.2800958710    -4.6642109514
          3
Energy: -0.059999865094661355 Kcal/mole
 He    -1.3795845082     0.3832008833    -2.8156346074
 He    -3.8456286136     0.3956723254    -4.2800176019
 He    -1.6190776419    -1.1411631608    -5.2335334441
