          3
Energy: -2.6583785028518227E-4 Kcal/mole
 He    -0.9437248777    -2.0728731683     6.8186892944
 He     5.0317795023    -3.5619730266     4.1233584326
 He    -3.3308306932     5.6464390345     0.6250290803
          3
Energy: -6.317951266767449E-5 Kcal/mole
 He     5.4917174138    -7.1607815873    -4.3873346630
 He    -5.0366446810    -4.2910447308    -4.9033999622
 He    -5.7313911974    -4.7086432096     3.8815141394
          3
Energy: -2.4289239284143801E-4 Kcal/mole
 He     5.1115905321    -3.3750264426     5.8174212459
 He    -7.1317887338     2.0186711106     4.8861651527
 He     5.4327299096    -3.3457710561    -0.9161696407
          3
Energy: -2.8900041116139327E-5 Kcal/mole
 He    -1.7409980658     6.4136797032     5.0697306576
 He     2.5980470725    -2.6891075132     5.5655899733
 He    -6.1413164872     2.9430832941    -5.9509925867
          3
Energy: -1.6768579548765634E-4 Kcal/mole
 He     7.2203145314     3.4326809939     3.5160843135
 He    -6.0602264485     4.8422757630     2.8433791231
 He    -1.0378009513     0.9647333049     6.7973567395
          3
Energy: -1.5306866699199638E-4 Kcal/mole
 He     0.7495751034    -5.9592242821    -3.8651006593
 He    -1.6826563279     3.9872833597    -6.3783689709
 He    -6.6857004662    -5.1658035892    -3.1231706430
          3
Energy: -3.087270187153496E-4 Kcal/mole
 He     2.0676026140     3.1310850304    -4.0013100414
 He    -2.9356350752    -0.3816444092    -1.7880418736
 He     4.6672177768    -0.4965510630     7.3859957484
          3
Energy: -0.016870567216079223 Kcal/mole
 He     1.6513950328    -0.1215465737     3.7372251200
 He     3.9473058841    -1.9968521131     4.7200798465
 He    -0.8799584534     2.1034039226    -4.5338851889
          3
Energy: -2.4267523330630624E-4 Kcal/mole
 He     0.9819690455    -2.7520767478     6.6952939910
 He    -1.9744672760    -4.2882072048     0.8474074781
 He    -4.7720215893     7.4183125164    -6.7367257213
          3
Energy: -0.059999877452587676 Kcal/mole
 He    -1.2357256843    -2.0804005850     3.9935036879
 He    -2.3001196110    -3.7522596443     1.9184285535
 He     0.4284028986    -2.8754476351     1.7945012657
