          5
Energy: -0.004464101951734549 Kcal/mole
 He     0.3685448529    -1.0261967042    -1.3394355937
 He    -4.8356125066    -1.7211936149     3.9345877742
 He     2.2788882088     2.9167193029     1.3456719210
 He    -4.8812239951    -0.5092036758    -2.3675801362
 He     2.8611279281    -2.1755823591     3.3236004964
