          5
Energy: -0.18197716350419046 Kcal/mole
 He    -6.1917425217    -6.2841301676     6.7146983088
 He    -3.8979046138    -4.7628893747     7.4987978043
 He    -4.1494018415    -5.7230199688     4.7989083083
 He    -3.0837909236    -3.1371107943     5.2719709786
 He    -5.8670468925    -3.6083495431     5.7391856610
