          5
Energy: -0.024101288843645582 Kcal/mole
 He     3.0782817467    -0.9047239757    -3.7443732828
 He    -5.4852743547     1.8276950922     3.0766611138
 He    -2.0898975050    -3.4313380647     6.2287067218
 He    -4.7121390432     1.0683277369    -0.4328974144
 He     3.8341007902     0.4360827496    -0.9541566809
          5
Energy: -1.675502847327999E-4 Kcal/mole
 He    -5.5032844920     1.1825733352    -6.1404694174
 He    -5.6070899773    -7.2430403856    -2.6046131278
 He    -5.9572755216     5.1927282204     5.6201323716
 He    -1.7846143268    -5.6066265247     5.4021294738
 He     1.2510983406     5.0357917564    -1.2152553950
          5
Energy: -0.002384716883951328 Kcal/mole
 He    -5.3658259398     3.5303038239     1.6989648968
 He    -0.7158747978     2.3808389877    -1.3050844923
 He     4.4123022255     1.4422566412    -2.0369641956
 He     5.0812309069    -5.3040084020     4.9866940573
 He     4.0751799617     2.0491498922     4.3053981605
          5
Energy: -0.022243836869498757 Kcal/mole
 He    -2.5183557082     4.1634555391     3.1009210921
 He    -3.7769259195     4.5828300165     0.1881454044
 He    -0.5762352167    -4.7218579706    -2.8299293266
 He     0.0326359629     5.8122703366    -0.4619604048
 He     6.6962576275    -0.1933484443    -5.6845844300
          5
Energy: -0.016759292362039237 Kcal/mole
 He     2.7341054035    -3.7662238369     3.7298963891
 He     0.4944646558    -5.5133167543     5.4182405454
 He     3.5408597546     1.8822620648     3.7511672082
 He     6.1799352826    -3.2839343996    -3.2606286407
 He     6.5063213747     0.1909422698    -6.2002495086
          5
Energy: -0.019756807818963818 Kcal/mole
 He     7.0834331312     5.7153668590     2.5611947806
 He     1.5352617319    -2.3510816616     3.8218434240
 He    -0.4024312525     4.8138872999     5.3982656148
 He    -2.3945621574    -1.1515458322     4.0002235739
 He     0.2711372209     5.6365296949     2.9453514163
          5
Energy: -0.08363289238288717 Kcal/mole
 He     6.1025612212     6.0723756355     2.0912294449
 He     3.5633599934     2.0177181960    -0.5739614940
 He     2.9743210531     3.7163113939     2.2083573857
 He     4.0119747237     5.1976968828     4.4927876662
 He     4.0573800456     0.9696982023     2.8920885378
          5
Energy: -0.13036743704772993 Kcal/mole
 He    -3.2330011209    -5.9777289403     2.8379584942
 He    -1.4137385468    -3.3307122153     2.9645813313
 He    -2.5318611729    -4.5167019340     5.3052847251
 He    -0.5001036159    -6.1028235739     3.6446685123
 He     0.0649483016    -5.7056626871     0.1601951074
          5
Energy: -0.15440756869874497 Kcal/mole
 He    -3.3817422029    -3.0456878632     0.1797869762
 He    -4.5705901229    -3.4718385191    -2.2605961851
 He    -4.2139116896    -5.6245251154    -0.3965343814
 He    -6.2841975384    -3.5653107253     0.4127558410
 He    -4.9280963229    -1.5892610278     2.0205924211
          5
Energy: -0.18198527677334886 Kcal/mole
 He    -3.3178985248    -2.9610035517     0.1689522290
 He    -4.7587510753    -3.2192586109    -2.3089712617
 He    -4.2429631024    -5.5183820860    -0.6952872855
 He    -6.1331867142    -3.5465288191     0.1844153192
 He    -5.1827417956    -0.9460312700    -0.6396666573
