          5
Energy: -0.007555667419914612 Kcal/mole
 He     4.2915171937    -3.1025312404    -0.7076979705
 He     6.1063416173    -1.0727663712     2.1070709394
 He    -1.3549061980    -2.7152838845    -3.0832417993
 He    -1.3966611932    -2.1892423480     2.4015298318
 He     2.6981859354     4.9342915657    -2.5608956204
          5
Energy: -0.0010058611840816358 Kcal/mole
 He     0.6148746233     7.0431557074     6.4425555639
 He    -4.5570866426    -3.1134882042     2.6969158517
 He    -5.7678065055     1.4156464173    -4.9838977145
 He     3.1596395748    -3.4643054466     2.9416945446
 He     4.8928855095     6.9944653943     3.0134450211
          5
Energy: -0.007747358877576629 Kcal/mole
 He     2.7971174198     5.3287708344     3.2298553893
 He     6.1503414321     2.4550968294     4.1668790560
 He    -1.3502981132    -1.1578497139    -3.5679617436
 He     5.2213823567     4.6398940396    -2.8204119068
 He    -3.8094553688     0.0636340921    -0.5705954520
          5
Energy: -9.696459862524383E-4 Kcal/mole
 He    -5.1389403431    -5.1427864238     6.4978781330
 He    -3.3491181419     4.1782186598     7.0679991400
 He     6.3883317207    -0.6808649717    -3.1823453090
 He    -6.4676196886     0.1896585487    -6.9970687944
 He    -6.6514320757     4.1949414909     2.7958211097
          5
Energy: -0.008902590310470183 Kcal/mole
 He    -6.8002420035    -7.4347182702     6.7791053069
 He    -2.0237548699    -1.1437840031    -4.3396472743
 He    -4.5338960646    -3.4565424122     1.3617634305
 He    -0.4642069518     1.2524840617     5.1112359449
 He    -3.3353595595     0.0944713927     0.5324455087
          5
Energy: -3.1715579116143564E-4 Kcal/mole
 He    -4.7556884098    -6.2707430121    -3.5940525582
 He    -5.4882725468     0.5184798147    -4.7977179718
 He     5.5390294493     2.7334263074    -1.9397802066
 He     0.6407115215    -2.1939256473     7.1925081880
 He     4.9852867661    -6.1160080907    -2.5808618630
          5
Energy: -0.018093366160669724 Kcal/mole
 He    -0.0769819705    -1.3646629488    -2.0524027336
 He     1.7173134322    -7.0602527301    -6.5808846436
 He    -1.4027398050    -4.1675778859     2.5647937089
 He     4.6439842107    -7.0145976729    -5.5344572247
 He    -6.5536114175     5.9763277080    -5.7483600547
          5
Energy: -0.017268957743971226 Kcal/mole
 He     2.2666679115    -5.4582710209     0.1898295256
 He     5.1616437409     0.8879409918     5.8934213383
 He    -3.9072168936     0.9817328525     6.4908517240
 He    -4.4118419479    -2.0732537774     6.8134620007
 He    -2.1688412621     2.5014767537    -1.6933878754
          5
Energy: -0.16158325771246906 Kcal/mole
 He    -6.0732418504    -6.4251544615     6.8296099254
 He    -3.7332708854    -5.0904366460     7.4037955284
 He    -4.2178111703    -5.7981291934     4.7540961225
 He    -3.2812717836    -3.2588882091     5.4812075844
 He    -5.9338138237    -3.5335885824     5.6722812315
          5
Energy: -0.18197716350419046 Kcal/mole
 He    -6.1917425217    -6.2841301676     6.7146983088
 He    -3.8979046138    -4.7628893747     7.4987978043
 He    -4.1494018415    -5.7230199688     4.7989083083
 He    -3.0837909236    -3.1371107943     5.2719709786
 He    -5.8670468925    -3.6083495431     5.7391856610
