          5
Energy: -0.18198527677334886 Kcal/mole
 He    -3.3178985248    -2.9610035517     0.1689522290
 He    -4.7587510753    -3.2192586109    -2.3089712617
 He    -4.2429631024    -5.5183820860    -0.6952872855
 He    -6.1331867142    -3.5465288191     0.1844153192
 He    -5.1827417956    -0.9460312700    -0.6396666573
