          3
Energy: -0.0017948403615419021 Kcal/mole
 Ne     6.1421180469     6.8145247105    -1.1627055621
 Ne     6.7502855428     4.2125012989     4.7058349943
 Ne    -7.0418194154     4.7364398586    -1.0083570540
          3
Energy: -0.05617701409567255 Kcal/mole
 Ne     2.2700004894     6.9929728970     2.7505568917
 Ne    -0.9608691827     6.9421620093    -3.2836781391
 Ne     2.0340973372     4.3583333293     4.9691848749
          3
Energy: -0.04163304624036261 Kcal/mole
 Ne    -5.7948820060     0.7027827270     4.1629379571
 Ne    -0.4700811327    -4.1068230189    -2.5920249804
 Ne     0.3178724908    -7.4994375629    -3.7975392621
          3
Energy: -0.06789462524388716 Kcal/mole
 Ne    -2.1376480968     2.3366693447     5.9515956993
 Ne     3.1793274797    -1.4212850867     3.3550985666
 Ne     2.3477651385    -4.3742094098     2.3420165048
          3
Energy: -0.005142051885777191 Kcal/mole
 Ne    -5.7225827545     1.4193622443     6.1969069937
 Ne     2.5451467193    -3.2845242696     1.2333272537
 Ne     3.5445800376     0.6750880796     4.8140406572
          3
Energy: -6.695766850953189E-5 Kcal/mole
 Ne    -1.2233321551     4.0851673548     5.9126462337
 Ne     4.9741158202     6.3211379208    -7.1418015715
 Ne    -5.3270145655    -2.1690576187    -3.9962680262
          3
Energy: -7.864194012430238E-4 Kcal/mole
 Ne     6.0857602778    -6.6333110891    -2.0673755702
 Ne    -0.1290490940     5.4679990085     5.1651129726
 Ne     1.3218333686    -0.4946569444    -1.7707728630
          3
Energy: -0.005159099864613121 Kcal/mole
 Ne     4.7039054129    -6.2463542707    -0.9754946321
 Ne     1.2682208898    -3.4379645971    -5.4794769660
 Ne    -3.5042398617    -0.1758007818    -6.4084711345
          3
Energy: -0.001119313612195194 Kcal/mole
 Ne    -2.8638855178     6.1246897182     3.6246133789
 Ne     3.0816834254    -7.4036086024    -0.9578383839
 Ne     0.5562025817    -0.0048167645     0.4163844453
          3
Energy: -0.20699940925643298 Kcal/mole
 Ne     1.4715887906     2.7737867678     4.2848940482
 Ne     2.0817026973     0.4805276023     2.2597655541
 Ne    -0.8727943222     1.2286244235     2.9259302141
