          3
Energy: -0.0028561867648130004 Kcal/mole
 Ne    -4.4688765326     2.2690646941    -1.4662870275
 Ne     0.0851830201    -6.2701681229    -0.0755033669
 Ne    -1.2536232343    -2.4662647587     4.5723140315
          3
Energy: -1.3725723354320344E-4 Kcal/mole
 Ne     7.0905773163    -5.6840787695     6.1246379737
 Ne    -3.1902873012    -3.8935669052     2.9824272000
 Ne     5.8318742503    -6.9485724000    -6.0639047109
          3
Energy: -5.061274631903066E-4 Kcal/mole
 Ne     6.5264882706     0.6563282945     0.6723548573
 Ne     5.0791308272     4.5798986664    -7.0170176411
 Ne     1.7504402993    -5.8869992798    -4.5129057331
          3
Energy: -0.0012175661172347905 Kcal/mole
 Ne    -7.1229584871    -5.9829920835     2.1168233345
 Ne    -5.4321559626    -5.2753102214    -5.0838987032
 Ne     0.2623609793    -2.1056733670     3.0590924226
          3
Energy: -9.13834047623077E-4 Kcal/mole
 Ne     6.2249322897    -1.7684419574    -3.1809986336
 Ne     3.3522569431    -6.6907118525     1.4381718880
 Ne    -2.3729817287     4.3773325241    -5.1357124883
          3
Energy: -0.010445556307083392 Kcal/mole
 Ne     3.3986471519     6.5098522569     4.3324370284
 Ne    -0.1137033562     4.8192183476     7.1656454186
 Ne    -5.1190201953    -0.4862923679     4.4749415177
          3
Energy: -0.03421769543427907 Kcal/mole
 Ne    -1.4433918393    -0.9622441237    -0.9411651495
 Ne     0.1381449428    -4.4574373865    -0.8418139903
 Ne     1.1749945403     6.7945512023     6.2777204715
          3
Energy: -0.003473335393851002 Kcal/mole
 Ne    -1.0676787521    -2.4853430814    -4.3837779940
 Ne    -5.1050962378    -7.4669236183    -4.0357358736
 Ne    -6.3206668764     1.4707838669    -3.2597595548
          3
Energy: -0.055556973105669614 Kcal/mole
 Ne    -3.5907771235    -1.3625482682    -1.9837698542
 Ne    -4.0611408588    -3.8973079700     0.2938674515
 Ne    -6.6865537744     6.9999987549     5.2452329170
          3
Energy: -0.20699786921176622 Kcal/mole
 Ne    -3.2349470649    -0.5446171161    -0.4877505555
 Ne    -3.8818750260    -3.0022582223     1.3275195200
 Ne    -4.7783420662    -0.1429196613     2.1954533340
