          3
Energy: -4.0094551148803524E-4 Kcal/mole
 Ne     3.3920922593     7.1333997171     2.7205297035
 Ne     7.4673053400     4.9103056979    -5.3778479542
 Ne    -3.6868990921     2.6872035869    -1.9957516323
          3
Energy: -0.003352098112283757 Kcal/mole
 Ne    -5.8311752400     1.8178062815     1.7637463679
 Ne    -6.0614185267     3.5757641157    -3.7552834195
 Ne     3.7228178861    -7.0434989244    -1.1325505590
          3
Energy: -0.005175050215634191 Kcal/mole
 Ne     5.2850095161    -0.6287258056     3.6810493971
 Ne    -2.9924821474     2.1498212039     7.3384780388
 Ne     5.5152880068    -5.2248138134     0.8308987955
          3
Energy: -2.387764145442351E-4 Kcal/mole
 Ne    -2.1821875072    -2.3225539187    -5.9451516474
 Ne     4.7265632743    -1.2451737991     0.9080104722
 Ne    -5.5047690845    -1.7714692364     5.9150557008
          3
Energy: -0.009058722266501014 Kcal/mole
 Ne     0.4756053719    -3.1747146831    -2.2452067236
 Ne     6.9863510546    -5.0196929347     3.8858384911
 Ne     3.6624372565    -7.0318777040    -0.3059893969
          3
Energy: 0.08237685552130455 Kcal/mole
 Ne    -7.3548615431     0.6957992998     6.8716136633
 Ne    -5.2366417009    -0.9069211499    -4.5993059648
 Ne    -5.3805416972     1.7512602169    -4.2746930547
          3
Energy: -0.025855874595615936 Kcal/mole
 Ne    -6.8055335953    -5.9157471049    -5.4927039554
 Ne    -3.3878533344     2.4836173168     1.4290057161
 Ne    -4.1998638108    -4.6302808538    -2.6516694819
          3
Energy: -0.0029261474089108536 Kcal/mole
 Ne    -4.7031225550     1.6268517729    -3.0301676216
 Ne    -0.5558484191    -3.3499148290    -2.4401624026
 Ne     4.8655451561    -4.7151676475    -6.4242371002
          3
Energy: -0.11920205103131348 Kcal/mole
 Ne     7.0413213055     5.1287841418    -0.2308594213
 Ne     5.4523569891     2.7602091774    -1.0375900181
 Ne     3.2511769817     1.0131548202    -2.9747702549
          3
Energy: -0.2069966810936893 Kcal/mole
 Ne     4.2995701724     5.1737594208     0.9967993866
 Ne     5.4841323156     3.1638387709    -1.0804315252
 Ne     2.4937248280     4.0332498634    -1.2761453456
