          3
Energy: -0.011133800095464287 Kcal/mole
 Ne     3.3348718530     2.8932606146    -6.5439046578
 Ne    -4.2268104024     3.2729038408    -4.8781077255
 Ne    -2.4039939376     0.5727579620    -1.3603509948
          3
Energy: -0.032370059883837954 Kcal/mole
 Ne    -4.0164154620     2.9585972062    -4.1761239835
 Ne    -4.7721985613     1.6004664704    -0.6130091633
 Ne    -1.7870800886    -6.5218292385    -2.9031320966
          3
Energy: -3.093816774505382E-4 Kcal/mole
 Ne    -6.0743082041     2.3991635569     5.4617779682
 Ne     3.4019619645     6.3134486333     3.3398853232
 Ne    -0.7306945723     3.2363923761    -4.7895829055
          3
Energy: -4.550998187140648E-4 Kcal/mole
 Ne     1.6853242792     4.3775855612    -5.6154462874
 Ne     5.4697404044     5.2869174199     2.0786959883
 Ne     1.3637222564    -3.0121082413     5.9001442780
          3
Energy: -0.10100647303884866 Kcal/mole
 Ne     6.1938785796    -3.5607949050     2.4279356157
 Ne     1.8441041578    -4.8779678759     7.0832197649
 Ne     3.6766456975    -3.8960941505     5.0168231905
          3
Energy: -8.540505667575163E-4 Kcal/mole
 Ne     2.8864519398    -7.1668726904    -3.4047669318
 Ne     3.6729597433     0.1096052689    -7.4068550553
 Ne    -3.2442974362    -1.5230704253    -1.0902450879
          3
Energy: -0.01671196161142543 Kcal/mole
 Ne    -5.0078160380    -0.3810390093    -1.0297073547
 Ne    -4.8619049471     3.6229772725    -6.1740025064
 Ne    -3.0297208300     1.2758925649     2.6319988078
          3
Energy: -0.00220393452947516 Kcal/mole
 Ne    -4.6497207500     7.4951695694    -1.5743398711
 Ne     6.6379187900    -6.6198468208     3.8522480545
 Ne     0.4298930558     5.0542230937     1.0603533084
          3
Energy: -0.06498179716173559 Kcal/mole
 Ne    -2.4217194073    -4.3757213544    -3.6250676130
 Ne     4.1553034076    -5.9089941650    -4.5154770472
 Ne    -4.2780346911    -6.7313456610    -5.0025270277
          3
Energy: -0.2069993775386884 Kcal/mole
 Ne    -1.8454551325    -4.9377740313    -3.9282656544
 Ne    -1.0894794698    -7.0723048538    -6.0772462053
 Ne    -4.0794592013    -6.6276200330    -5.3018397286
