          5
Energy: -1.0780325697414908 Kcal/mole
 Xe    -6.9473391126     7.8332544658    -6.1946469904
 Xe    -2.0401536731     1.6449692828     1.7355012882
 Xe     0.5713124449     8.9308955246     6.7015669835
 Xe     0.3861492569    -2.5544358779     3.3713349083
 Xe    -2.1962525727     0.1389772122     6.2436566952
          5
Energy: -2.105624495298604 Kcal/mole
 Xe    -3.3764729626    -5.7421550056     3.9237885875
 Xe    -3.2864980749    -8.8888005736     6.6702568328
 Xe     1.0550587269    -3.2289478503     1.4022345037
 Xe    -7.5083489586    -7.0224495586     2.4217816410
 Xe    -6.8631032063    -4.8829718482     6.6472167597
          5
Energy: -2.086786503300635 Kcal/mole
 Xe    -5.1508820905    -1.5760559361    -0.5887220201
 Xe    -1.2810137399    -3.9948599788     1.1977860585
 Xe    -9.4514205774    -4.7908321472     2.0875765581
 Xe    -6.4087411927    -5.7194938990    -0.7679710130
 Xe    -3.9992973060     1.1453307450     2.5683457768
          5
Energy: -3.1088844164462124 Kcal/mole
 Xe    -7.3303322392     4.6998500342    -2.6405418238
 Xe    -4.6663570719     2.4944962152    -5.2218118663
 Xe    -3.1994980922     6.0904872821    -6.0949008657
 Xe    -0.7147491379     2.9240262686    -3.9861559394
 Xe    -3.2214863047     5.8647360769    -1.9177572293
          5
Energy: -3.4007332504051657 Kcal/mole
 Xe    -9.2889657051     6.8775982400     1.8856815190
 Xe    -5.6058588435     6.4155323908    -0.5084303362
 Xe    -6.8519737151     3.1978918280     1.7237571088
 Xe    -5.2541955656     2.1886604164    -2.8625158503
 Xe    -9.6514963242     4.2194911127    -1.8061475937
          5
Energy: -3.5181595731953927 Kcal/mole
 Xe    -3.5427373929     3.1989117196     1.8630475194
 Xe    -3.9350714605     2.7168127793    -2.5549752933
 Xe    -6.6205582885    -0.0148834841     0.7749471897
 Xe    -2.3869972471    -0.4189596281     0.0498212963
 Xe    -5.7086051496    -0.9856255983    -3.7372945308
          5
Energy: -3.457946659869191 Kcal/mole
 Xe    -0.1390246373    -0.4535864379     0.5477077615
 Xe     1.6119690919     3.1847389669    -2.0489774738
 Xe    -2.0884209092     0.5305356779    -3.0859817980
 Xe     2.2529094329    -1.1111838860    -3.2692946013
 Xe     1.4868289503     1.7836388979    -6.7238118800
          5
Energy: -3.6388409817685172 Kcal/mole
 Xe     2.1244199043     5.6494051632    -1.4540011350
 Xe     5.4982577570     3.3265841791    -1.4979949983
 Xe     2.2635792792     1.9594677312    -4.4258622524
 Xe     1.4459122650     1.2903009534    -0.1004309732
 Xe     4.6559103197    -1.0135484133    -2.3343451187
          5
Energy: -3.813743278567338 Kcal/mole
 Xe     6.1062471039     6.0616945788    -0.7598140371
 Xe     4.6144331365     1.8591526614     0.9488417178
 Xe     5.7048094226     2.6221306365    -3.5173407865
 Xe     2.0927929016     4.3641755586    -1.7412564961
 Xe     2.2965872857     0.1575600874    -2.3535085541
          5
Energy: -3.9414060578709362 Kcal/mole
 Xe     5.8481871488     6.1043883481    -0.7843948330
 Xe     4.7620304621     2.1252512552     0.7878320036
 Xe     5.7129775446     2.6410447683    -3.5011737576
 Xe     1.9713763090     4.3220045127    -1.8764305757
 Xe     2.4371457995    -0.0536103086    -2.2674219559
