          5
Energy: -0.050322806005462455 Kcal/mole
 Xe     5.3071517687     0.2688861709     2.8106787954
 Xe    -3.6193636916    -2.3190943906     3.0971291139
 Xe     2.3933902398    -6.5602668769    -3.7148969880
 Xe     1.3706787133     6.4721025718    -6.3587464790
 Xe    -5.7194964494    -2.0739423760    -5.9298983929
