          5
Energy: -1.8099483032518915 Kcal/mole
 Xe    -2.9877533748     1.8387539332    -3.3542178408
 Xe     6.4223545209     3.4376413333    -9.1746419742
 Xe     7.6460459005     6.2844110005    -5.9011161444
 Xe     4.7963382395     1.2835879525    -5.2125934745
 Xe     5.2028631533     7.4461023081    -9.2318497388
          5
Energy: -3.305560621240239 Kcal/mole
 Xe    -0.1645174731     4.0587657760    -2.5502910770
 Xe     2.0011941297     3.1878483870    -6.4596912757
 Xe     4.3653860096     4.3882714497    -3.0538120278
 Xe    -3.0332606017     3.1393844649    -5.6397066822
 Xe    -0.3760211318    -0.1849171708    -4.6235457918
          5
Energy: -3.008634757199944 Kcal/mole
 Xe    -3.8487978638    -1.1230793592    -8.3294159997
 Xe    -4.5493370312    -2.0367151533     0.0188681713
 Xe    -2.7472430444    -0.1655930987    -3.5756567326
 Xe    -2.5334535670    -4.1095798073    -4.9611210474
 Xe    -0.3896936505    -2.9706374186    -1.1823682937
          5
Energy: -3.0666176095706454 Kcal/mole
 Xe     0.1780344560    -3.1800119955     1.7382101691
 Xe    -0.2346467558    -3.3719458374    -2.3091274227
 Xe    -2.5731744940    -6.5856762502     0.5408610124
 Xe     0.8407631281    -7.6138218517    -2.1679359034
 Xe    -4.0274153410    -6.3537230484    -3.5000252645
          5
Energy: -3.4187608412504282 Kcal/mole
 Xe    -4.3636274316    -2.3022318870    -3.3774858777
 Xe    -6.6734911078    -5.5461390960    -1.9221549868
 Xe    -6.2366088857    -1.7303344123     0.3075949357
 Xe    -8.5674126916    -2.7520058608    -4.6364466063
 Xe    -4.8910222726    -5.3881293858    -6.3798612350
          5
Energy: -3.659864255086068 Kcal/mole
 Xe    -7.2520697271    -3.0897408811    -1.0317674829
 Xe    -3.3007180418    -2.3488666673    -2.5307529862
 Xe    -4.4515042065    -1.1586678779     1.6523118355
 Xe    -4.3621874557    -5.7361823470     1.3019748994
 Xe    -5.4489198448    -6.4302012168    -2.9635029745
          5
Energy: -3.779006063553576 Kcal/mole
 Xe    -7.0153429849    -7.6357475996     2.8959804250
 Xe    -4.6681094140    -3.7667077180     2.8559574675
 Xe    -5.7955839003    -5.9324437105    -0.9824141425
 Xe    -9.9581836411    -7.7646046173    -0.5317202430
 Xe    -8.7742144588    -3.9865892152     1.8006823686
          5
Energy: -3.7901688503826216 Kcal/mole
 Xe    -5.4219722637    -5.5290705013    -0.6253946030
 Xe    -7.4585919632    -9.3313036215    -0.8003313034
 Xe    -6.3705265413    -7.7279901392     3.0145937678
 Xe    -6.8330102541    -3.4498484979     3.2267905120
 Xe    -9.9177257121    -5.9157790591     0.9119038807
          5
Energy: -3.893109037077625 Kcal/mole
 Xe    -6.0566098114    -4.7443075766    -0.8288449937
 Xe    -7.3540294944    -7.8929956409    -3.5018979849
 Xe    -5.8875883964    -9.0791344357     0.4681760730
 Xe    -6.7100671569    -5.9690075021     3.4139786078
 Xe    -9.8025930892    -6.9866119112     0.1689972170
          5
Energy: -3.9410928555953575 Kcal/mole
 Xe    -6.0992769574    -4.7013682669    -0.7799423161
 Xe    -7.4581552780    -7.8766840841    -3.5258462333
 Xe    -5.6663351777    -8.9537803818     0.3553097366
 Xe    -6.8278817729    -5.9531320248     3.3916669290
 Xe    -9.6814806999    -7.0737859223     0.2185410844
