          5
Energy: -3.9409100757194193 Kcal/mole
 Xe     7.5118232385     1.5218059190    -8.0648968276
 Xe     4.6793197261     3.8090102037    -5.5627323325
 Xe     4.6459647406    -0.6289600128    -5.5128927064
 Xe     4.0719617278     1.6404991610    -1.7835427908
 Xe     8.0140138935     1.5910531355    -3.6974997268
