          6
Energy: -0.00420622628754219 Kcal/mole
 Xe   -14.7179914979     3.9625872953    11.0126944081
 Xe    -4.5790546571     4.4513999497    15.5653209407
 Xe   -14.3061056226     4.5875347943   -12.7567076187
 Xe    -6.3256568119    -9.8678897178    21.6229067532
 Xe    -8.4289808635   -21.1889037460     1.4294890574
 Xe     8.3467768709   -11.8610894347    -3.9971827397
          6
Energy: -0.06154922817926891 Kcal/mole
 Xe    11.3470401321   -10.7470173461   -12.8731641501
 Xe    -3.3206184081     3.2249033051     0.4829399455
 Xe    16.8743046017   -18.3424980896    19.4224461459
 Xe   -21.5015517714     0.8485399979    23.8956913704
 Xe   -24.3429532853    -9.2581566133    23.5099802328
 Xe    13.8087399358   -12.3193605971    17.9478858813
          6
Energy: -0.0015601157555835865 Kcal/mole
 Xe    -9.8226680500   -23.1536940405    11.4417856860
 Xe    -4.2008045409   -19.6514277179   -17.4390482775
 Xe    11.7102470229   -15.2316840706    23.6214821356
 Xe   -19.0872065504   -12.5958754482    -1.0048260247
 Xe   -14.7332525596   -20.4217255791   -25.1298579498
 Xe    14.4719618875    -0.4553937265    -4.8085126530
          6
Energy: -5.158648136681759E-4 Kcal/mole
 Xe    19.7883280758    22.9849548278    -9.7826297592
 Xe    17.5784544824    -5.3183197785    -6.5308968596
 Xe   -18.3444918594     3.0058185030   -15.5861278851
 Xe    -2.9055413928   -26.1802453611   -21.4100840670
 Xe    -4.0570680858   -14.1340934729   -11.1634757697
 Xe   -23.9068874791    -5.5946352827    22.4674675031
          6
Energy: -0.0033119784465663843 Kcal/mole
 Xe    10.0949223240    14.2035274276   -17.5431579925
 Xe    19.0444515051    -2.6215568543   -20.9560700588
 Xe     4.3588808150    19.6287525828   -26.0340099414
 Xe    22.5172217848    -9.9837300322     9.7222820842
 Xe   -13.8363423462    -5.9746660622     2.0840748317
 Xe    -3.7394982856   -12.4434083243    -7.5368465898
          6
Energy: -1.8048236327797125 Kcal/mole
 Xe    17.1075744484    -2.4861483512   -13.0993624376
 Xe    14.5839238150     0.1024366072   -10.4209172507
 Xe    21.7476012703    -4.1226197123   -10.8329770470
 Xe    19.4001694052    -0.0305336577    -9.9842956586
 Xe     9.1481335144    22.4256447595     1.8068908671
 Xe   -13.2952230991     1.2125523847    11.4699300301
          6
Energy: -2.4009655785340387 Kcal/mole
 Xe    14.1703779134    -4.9375937950   -11.9314322904
 Xe    14.4898354476    -6.9231739813    -7.8316946008
 Xe    15.9667880005    -9.4674512803   -10.8580473526
 Xe    17.9660050035    -5.6318816162   -10.0422010232
 Xe     2.5225294165    25.9553573177    11.7747042719
 Xe   -10.5000179933     1.6612522721     6.9448052170
          6
Energy: -2.4603447201315776 Kcal/mole
 Xe    18.4297046511    -0.9824164998   -10.3121133468
 Xe    22.3543553289    -2.9065500063    -9.4448486484
 Xe    22.0177739572    -1.0387556680   -13.2228271081
 Xe    19.3596370544    -4.7186123462   -12.6450422480
 Xe   -18.3315711053   -17.7262797867    20.3536203624
 Xe   -12.5433039430   -18.5406272389    -6.8539107481
          6
Energy: -2.5596036769852524 Kcal/mole
 Xe    22.0236787736     4.1861261402   -11.6736779648
 Xe    25.3120791321     5.7069235544    -9.0464266510
 Xe    25.7294350128     5.6117991422   -13.5834103542
 Xe    25.6025104324     1.7884313490   -11.0349420600
 Xe   -11.6408898274     4.9987182637    15.5191957112
 Xe   -12.2516000569   -23.4899552387   -19.0976778196
          6
Energy: -3.0306184045835938 Kcal/mole
 Xe    22.0677097380     4.2122429307   -11.6464244017
 Xe    25.3750966640     5.7809730588    -9.1577295356
 Xe    25.8506993560     5.4949582609   -13.5365888908
 Xe    25.7409482440     1.8103671553   -11.0708853997
 Xe    -5.5681807109    -4.3702191925    -2.8119776162
 Xe    -3.3006675534    -7.8842811954    -4.2308821422
