          6
Energy: -1.3002210777132222 Kcal/mole
 Xe     5.8416256301     9.7844581957     3.8321741014
 Xe   -22.5178362467   -21.0775010571     2.5008650890
 Xe     9.4406486532    12.3403294315     3.9944203008
 Xe   -19.8235459923   -17.7257382514     3.5020678489
 Xe   -14.7062501174    -4.2341465209     4.5981270952
 Xe   -11.0008843961    -1.8343664480     4.8222182165
