          6
Energy: -7.615988206123738E-4 Kcal/mole
 Xe   -11.1157019421    25.3451608693     1.3394265890
 Xe    17.9289035333    11.0703655872     1.7607341098
 Xe    23.4754126472    -5.7274522317   -16.4171068268
 Xe     9.2596184012   -19.2780009413    -1.5401331833
 Xe   -19.5691660988    21.4756261865    21.3337599990
 Xe    11.0117974235     7.9792748733   -11.6003532458
          6
Energy: -0.010967275148263591 Kcal/mole
 Xe   -20.8151253750    24.9364980556    20.3744810275
 Xe    24.5284895963   -24.3082154455    -1.7988761076
 Xe    -6.8640414036    20.8569847596     0.2506343400
 Xe    -3.3456485415    19.1642372077   -24.3853373643
 Xe    22.8900277508     6.9201110571    25.1530009073
 Xe   -11.4132963175    22.6187934382   -21.7822677751
          6
Energy: -0.44381444739604964 Kcal/mole
 Xe    20.8050188996    18.1429267090     4.1282802551
 Xe     5.5465850006     7.6181067457     6.1999354528
 Xe    -3.6529887399     1.2048630233   -13.2569476524
 Xe    -0.3952162594    -5.3908382655   -23.0622539240
 Xe    17.1779441392   -18.7745893126     7.2844103437
 Xe    -5.0316493722    -1.8419894586   -16.0601684469
          6
Energy: -0.015860420929777543 Kcal/mole
 Xe    -1.4649588878   -12.3052520469    -7.1146333452
 Xe    -1.4307563448    -2.0406746376    12.1694481129
 Xe   -23.0179865248    -5.6826435592    14.0339395458
 Xe     0.3185636000    -8.8283706286   -14.8007546635
 Xe    -9.1976141897    14.2545458342    16.1936889190
 Xe   -22.2131543204    15.5891118730   -14.0235256312
          6
Energy: -0.02488353359215248 Kcal/mole
 Xe     9.5821628446     2.3726860341    18.1162626492
 Xe   -13.1497490256    19.8184803102    19.3327641451
 Xe   -25.2435842771     9.7751772024    -0.9131433875
 Xe    -6.9372789079    11.4960976734   -13.7608148527
 Xe     7.6756521275    -2.1140941157   -13.5860029339
 Xe    -6.8027275745    23.4104718350    16.1072625615
          6
Energy: -0.4048894642524958 Kcal/mole
 Xe    -2.9149364724     6.2771635884    14.0477891294
 Xe    -5.5574179333     8.3539010369    17.2459968068
 Xe     0.7776494878     5.0374772069   -22.7963570075
 Xe    23.3870461871     8.1768337110     7.9928401559
 Xe     7.6690238988   -21.5245298755    24.2879750332
 Xe     6.3075151439    20.9403316859    -5.9762031215
          6
Energy: -1.6668750956873597 Kcal/mole
 Xe    -2.1565791962    13.7752298454    20.2588253749
 Xe     0.7199323408    13.4817355328    23.4529995931
 Xe     0.7742594757    10.1755536778    20.6744440361
 Xe    20.3610163768   -17.4464067675    19.1374751098
 Xe    16.3867573702   -15.9009341816    19.7235204819
 Xe   -15.0381597277     5.0190773552   -14.4285761527
          6
Energy: -2.5592859777987824 Kcal/mole
 Xe     1.5736090452    18.3817272653    17.8489682237
 Xe     0.4166740879    14.6317000411    15.9462945219
 Xe    -2.6552469669    17.2906604005    17.4901447009
 Xe     5.6677699706   -23.1842797969    16.2909683944
 Xe     8.7089503181   -20.0359374301    17.3136729244
 Xe     8.8136531738   -24.0345519449    19.4893773997
          6
Energy: -2.531319518553663 Kcal/mole
 Xe    -1.9456131549    13.6207951183    14.1905460622
 Xe     2.4517547236    14.7104530148    14.7775953365
 Xe    -0.2218578207    15.6290807849    17.9974810655
 Xe     8.2000411415   -21.8897540835    17.1330990915
 Xe    12.2858578308   -20.3411491714    16.8036456886
 Xe     9.3964880613   -19.2577272857    13.6729159376
          6
Energy: -2.5979986917071543 Kcal/mole
 Xe    -1.9580150588    13.5229527420    14.2723843470
 Xe     2.2519262893    14.8123212701    14.6351634993
 Xe    -0.5821219101    15.5822296454    17.9353540746
 Xe     8.1972677560   -21.9715476220    17.0561955424
 Xe    12.2984968178   -20.3739140644    16.6772119514
 Xe     8.9338546884   -18.3282151037    14.6759833546
