          6
Energy: -0.028948913175762925 Kcal/mole
 Xe   -13.4316863635     1.6328594218     9.7814862490
 Xe    -4.9255184345    15.1245449220    -4.9301182871
 Xe    -8.7808908391   -13.2810284707    -4.2561534972
 Xe     4.4662387796     6.1342034977    13.3467094710
 Xe     0.7156378176     8.4293569200     4.4938853181
 Xe    -2.6167840813   -10.3664591244     0.4532909864
