          18
Energy: -70.56286977798494 Kcal/mole
 H     -6.0407575285    -0.6212416278     6.2381222937
 F     -5.4917510075    -1.1220853483     6.7753712189
 H     -0.7257633886    -2.3996222259     3.6175655336
 F     -0.0360043500    -2.2155050721     3.0420463399
 H     -1.4734502761    -0.8476809646     0.2169585555
 F     -2.0765927714    -0.1577642216     0.2504700178
 H     -3.9761597003    -0.8993619573     6.2038183617
 F     -3.2001797820    -0.7201803977     5.7492436869
 H     -0.2371806100    -2.2098883234     1.3891772223
 F     -0.4544943483    -2.1153693725     0.5033274003
 H     -2.4173910171    -1.9786778888     5.0067888638
 F     -2.0085512268    -2.6954226915     4.6067689723
 H     -6.1515912258     0.7098879777     4.4533285443
 F     -6.7236832039     0.3429443598     5.0689194392
 H     -4.2205410186     0.7467696278     3.1624904206
 F     -4.9597039339     1.2310689685     3.4074012885
 H     -2.6687947115    -0.1236284996     1.7663056597
 F     -2.9389658290    -0.1957858893     2.6396268368
