          18
Energy: -70.5935848320802 Kcal/mole
 H     -4.6827640735    -0.9471479094     4.6285684648
 F     -4.8307289114    -1.7799817614     4.2744735881
 H     -0.9620087718    -5.8221387163     2.6153268491
 F     -0.1995275116    -5.9782303576     2.1304075493
 H      1.0041476551    -4.0273644315     4.2915269337
 F      0.3817957357    -3.6368435891     4.8402167915
 H     -3.4105377437    -2.5835996969     4.2968406685
 F     -2.5675501086    -2.9400310326     4.3535641207
 H      1.2124102423    -5.3066225971     2.6989401981
 F      1.8541699436    -4.8303387615     3.1485925013
 H     -2.3398000464    -4.5209524097     3.8953925771
 F     -2.2407012764    -5.3752781542     3.5772794587
 H     -3.2844706920     0.3091817797     5.7348188729
 F     -4.0913843159     0.4333829132     5.3172623115
 H     -1.1411683852    -0.4651269688     5.8594903510
 F     -1.8304820571    -0.1443112875     6.3721432163
 H      0.1550420758    -1.9864902338     4.8896487289
 F      0.0520571571    -1.0754969256     4.9089955345
