          18
Energy: -70.60860289388394 Kcal/mole
 H     -4.8159353612    -1.5194259295     5.8855342142
 F     -4.8304590293    -2.3697711384     5.5426186434
 H     -0.6164441239    -5.4795696498     2.9620620319
 F      0.0206322509    -5.4795152724     2.3024995331
 H      1.1464093032    -3.0805868287     4.0801100076
 F      0.6578567607    -2.8584198156     4.8236469815
 H     -3.2908709053    -2.8127765152     5.2402332605
 F     -2.3961876004    -2.9624939659     5.1060115445
 H      1.2239838605    -4.3462723024     2.4438620013
 F      1.7755693379    -3.6543634954     2.6844958806
 H     -1.9151407975    -4.4617322762     4.5645189955
 F     -1.6954733556    -5.2785076891     4.2102406590
 H     -3.5685279735     0.0486606758     6.7408363524
 F     -4.4459172580    -0.0260350273     6.4849113726
 H     -1.3345135445    -0.1865669578     6.4067705889
 F     -1.9493025776    -0.0454077996     7.0723511902
 H      0.0379380388    -1.3304826681     5.0549753926
 F     -0.2835255592    -0.4793334175     5.1694092528
