          18
Energy: -70.57874659301683 Kcal/mole
 H     -5.2448342139    -1.3184045794     5.0647000628
 F     -5.2421395288    -1.9553769752     4.4050426474
 H     -0.6100418966    -4.0951800608     1.6298793339
 F      0.2110344321    -3.9315887406     1.2557663264
 H      0.9229501602    -3.1752442909     4.2395328069
 F      0.2058114548    -3.1589065804     4.8107894537
 H     -3.7118823596    -2.4985890666     4.3187495089
 F     -2.8236749374    -2.7245810096     4.3488197077
 H      1.4535733438    -3.5061327233     2.2780992361
 F      1.9781860549    -3.2539089262     2.9866566858
 H     -2.2899146182    -3.7621187447     3.1705959332
 F     -2.0321776482    -4.2920472256     2.4680032636
 H     -4.1459985889    -0.5015590058     6.7673490932
 F     -4.8978621669    -0.2722310513     6.2951215534
 H     -1.9593693122    -1.0530891753     6.9461738550
 F     -2.7408366134    -1.0703127863     7.4256539946
 H     -0.3229727319    -1.7852090216     5.5990919461
 F     -0.5934968532    -1.0191670361     6.0243981608
