          18
Energy: -70.59048661406399 Kcal/mole
 H     -4.8192372244    -1.3840052979     5.8290726410
 F     -4.8655740031    -2.2452113715     5.5175184694
 H     -0.5894100325    -5.5603255434     3.0108806399
 F      0.0973879694    -5.6590230872     2.4113338949
 H      1.1523554232    -3.1525632212     4.0106328776
 F      0.5998892204    -2.8560724394     4.6797840647
 H     -3.3482147073    -2.6906711432     5.1025174397
 F     -2.4634509045    -2.8322833494     4.9075097568
 H      1.3334355331    -4.5605142913     2.5294190803
 F      1.8905873203    -3.8650255004     2.7456740866
 H     -1.9747617809    -4.3532442069     4.4406512771
 F     -1.7570204293    -5.1921316085     4.1410755251
 H     -3.4942977920     0.2171158945     6.5151096643
 F     -4.3906235671     0.1260352259     6.3442488535
 H     -1.2713429490    -0.0298280027     6.0280735746
 F     -1.8500469296     0.1602732334     6.7135312486
 H      0.0274370854    -1.2923388935     4.7495044586
 F     -0.2706769558    -0.4258596482     4.7845863029
