          18
Energy: 0.04944310937448648 Kcal/mole
 H      1.9737738993    -0.5550487163    -3.4084011749
 F      2.8907738993    -0.5550487163    -3.4084011749
 H      4.2835581408    -3.6195103196     0.0507900529
 F      5.1824043092    -3.4379488547     0.0507900529
 H     -1.7326884420     4.7938190430    -4.8150901816
 F     -0.8156884420     4.7938190430    -4.8150901816
 H      5.9961489782     3.5678444043     2.7525592799
 F      5.5277092152     2.7795213814     2.7525592799
 H     -2.5918308518    -2.0661638597    -3.2522330767
 F     -1.6748308518    -2.0661638597    -3.2522330767
 H     -2.6829321884    -1.4552762514     4.5316077014
 F     -1.8600689933    -1.8599800471     4.5316077014
 H     -0.5501860260     2.317935E-40     0.3576756977
 F     -0.6173429822     0.9147693505     0.3576756977
 H     -3.0966617335     4.4815381562     1.0981572285
 F     -2.1796617335     4.4815381562     1.0981572285
 H      1.1809124710     3.7500099386     3.3958792575
 F      2.0979124710     3.7500099386     3.3958792575
