          18
Energy: -70.44967997000452 Kcal/mole
 H     -4.7065229154     0.1567788860    -0.3988536070
 F     -5.5003635240     0.4885056389    -0.7161286447
 H     -4.1089059078     3.7459406000     3.5003253454
 F     -4.1251381726     4.4683566147     4.0648965236
 H     -1.4646834268     6.2061464616     2.6510476534
 F     -0.7323638322     5.8077354917     2.2691239564
 H     -6.0614807502     1.6703032367     0.2581965861
 F     -6.2130781128     2.3206792751     0.8866217992
 H     -3.3876166479     5.9046350967     3.6658710190
 F     -2.8988281594     6.6167184190     3.3577928544
 H     -4.9182775127     2.4919766484     1.8561667690
 F     -4.1434275367     2.5559650033     2.3423786623
 H     -2.6499373259     0.4887609297     0.3945112303
 F     -3.2708802823    -0.1847105345     0.3526181316
 H     -1.4726440930     2.3196515524     1.1338611638
 F     -1.6432965199     1.8082224119     0.3921017800
 H     -0.8907858303     4.1819975912     2.3517491067
 F     -1.1253570254     3.2995926627     2.4367602627
