          18
Energy: -70.602166884097 Kcal/mole
 H     -4.8347880133    -1.5165470660     5.7849887226
 F     -4.8477027744    -2.3817933929     5.4815566830
 H     -0.5828988681    -5.5567030856     3.0195551407
 F      0.0742418733    -5.5806051976     2.3804278176
 H      1.1373887677    -3.1318504145     4.1169098255
 F      0.6470696184    -2.9107254214     4.8595940580
 H     -3.3053552214    -2.8202629294     5.1876131032
 F     -2.4096540519    -2.9655827046     5.0553611550
 H      1.2411977880    -4.4152721361     2.5025922838
 F      1.7726725413    -3.7032408038     2.7293850710
 H     -1.9237624978    -4.4788512759     4.5595414221
 F     -1.7014900750    -5.3049635375     4.2293558664
 H     -3.5921011018     0.0543835484     6.6120946574
 F     -4.4597352358    -0.0024311539     6.3207664933
 H     -1.3539099701    -0.2268375905     6.3738869017
 F     -1.9932024784    -0.0848365061     7.0157823612
 H      0.0530150469    -1.3753227530     5.0754736477
 F     -0.2562259843    -0.5185551736     5.1813429045
