          18
Energy: -70.60203668781281 Kcal/mole
 H     -4.7982458318    -1.5017337857     5.8807870779
 F     -4.8110095155    -2.3509435740     5.5349998256
 H     -0.6297841002    -5.4999851544     2.9531532066
 F      0.0066812686    -5.4828070147     2.2932246152
 H      1.1474358518    -3.0680287836     4.1035845992
 F      0.6880728437    -2.8426308848     4.8645513619
 H     -3.2796769203    -2.8301566242     5.2453921664
 F     -2.3888514327    -3.0049418005     5.1158966341
 H      1.1854255484    -4.3282791088     2.4443887620
 F      1.7298053791    -3.6306932362     2.6850411050
 H     -1.9282915438    -4.5079316233     4.5684158626
 F     -1.7079267222    -5.3217544108     4.2078318698
 H     -3.5681202423     0.0752226826     6.7452211827
 F     -4.4450744528    -0.0076002197     6.4903081005
 H     -1.3363189943    -0.1578508393     6.4068736057
 F     -1.9487120087    -0.0065375587     7.0724320833
 H      0.0417134431    -1.3223600344     5.0694149349
 F     -0.2942192404    -0.4745948155     5.1660191055
