          6
Energy: -0.003151581322094937 Kcal/mole
 He    -0.7610459417    -3.7349917835    -0.6903735572
 He     1.6466159914    -3.9010585595     4.4680359035
 He     0.2763359705     3.6056015189     4.5624690652
 He    -4.7899269570    -2.1848593072     3.5183653281
 He     0.4364918816     1.7786579026    -1.6496767369
 He     4.1800379241    -4.8231000007    -4.4083361728
