          6
Energy: -0.023128891864350534 Kcal/mole
 He    -3.5263810078    -5.8884295814     3.4929364224
 He    -5.6060852292    -3.3139091591     2.1924652358
 He     0.3539089747    -0.5586329416     1.2256838158
 He    -0.5652006910     4.0950815979    -6.5519417748
 He    -2.6064578824    -2.3809566090    -0.5522767483
 He     3.1192112844    -4.4153901528     0.6434183561
          6
Energy: -0.0014938638298264905 Kcal/mole
 He    -2.9059781174    -4.5363804290     1.6548738095
 He    -0.3755663375     2.3661468118    -0.0197913884
 He     2.7630469048    -7.3443065454     4.5051657312
 He    -4.1457491943    -2.4780532536     7.4488269466
 He     4.1806006560     6.8165328768    -1.2674872900
 He    -1.7714599491    -7.3735059851    -3.8129122407
          6
Energy: -0.019713154659247688 Kcal/mole
 He    -6.3971191559    -5.2106785662    -5.7228936381
 He     5.1823189987     2.2524417234     3.8375175597
 He     0.2946158988    -6.4725550933     6.4787121858
 He    -5.7116626983    -2.2896751230     4.6167209543
 He    -3.0420487004    -1.5474865271     4.8038262220
 He    -7.2652866700     6.8295444237    -1.4607369590
          6
Energy: -0.02052030174655835 Kcal/mole
 He     3.8126676048    -2.2356549943     1.1663765850
 He     6.6089476733    -0.0438543877    -4.6684995425
 He     3.8810606621    -7.4278640728     3.1892246263
 He     1.7984851464    -2.2921534343    -2.8351320221
 He     2.5773473849    -4.5544422221    -5.5167867117
 He     6.3453314973    -6.9354612351     6.1007715292
          6
Energy: -0.02017871538767303 Kcal/mole
 He    -5.1446807650     3.2515558443     6.5533767479
 He     2.9858412347    -3.1151355256    -4.5876229200
 He    -7.4009630769    -1.8883365819    -0.0190870706
 He     0.9013439299    -2.1955661218    -2.7087101045
 He     7.4303674210     3.2843225607     4.0957202745
 He     6.5811771956     5.4861743674    -1.4118076733
          6
Energy: -0.007771385713892449 Kcal/mole
 He    -2.4026906206     3.6546518823     6.2686047592
 He    -1.5347737225    -6.7479274078     6.6910116953
 He    -4.4791567971     2.8446270340     2.7505124853
 He    -0.8576998711    -1.6394673379     3.7846763262
 He     4.6973109255     3.8481389567    -3.2807783821
 He     3.8289624041    -0.8905632287     3.8738009636
          6
Energy: -0.009685482943331944 Kcal/mole
 He    -6.3816998155    -5.9091918666    -5.5442695117
 He     1.6563573296    -1.6750158353    -3.9406781052
 He     2.7944115442     3.6478052263    -1.8393307617
 He    -0.3361006832    -0.7121376377    -5.3059672770
 He    -3.2603889905     0.2688358135     3.9589451858
 He    -5.8078734583    -0.3892918607    -4.0189384605
          6
Energy: -0.04445105970139972 Kcal/mole
 He    -3.9149475392     3.2221193157     2.0069023181
 He     1.0634043329     5.6505821589    -2.3623536857
 He    -4.0835757114    -0.9971773196    -5.5308569941
 He    -5.0587855922     0.9389828504    -7.4732369332
 He    -4.9405164489     1.9220036162    -5.0774749854
 He     0.8130496944    -2.2889724659     0.4009687444
          6
Energy: -0.022192386914999564 Kcal/mole
 He    -2.2276638869     7.2127453833     5.6764915942
 He    -6.2569853678     3.3815304475    -2.8992892147
 He    -2.8013990512    -3.0462347612    -0.7981410365
 He    -1.1163523418    -3.2579039605     1.1237959659
 He    -0.8386989523     0.9505682630     0.3833658942
 He    -3.2719744997    -1.4061352523    -3.7220182464
          6
Energy: -0.2459284814524146 Kcal/mole
 He    -1.4039713064     1.2798280007    -2.1752899756
 He    -4.2372177167     0.9527717243    -2.3619916753
 He    -2.3068189217    -3.2388399341    -1.5098038727
 He    -0.2134658557    -1.2881425320    -1.6400821422
 He    -2.7464870900    -0.5989892588    -0.4944114133
 He    -2.5126374022    -1.0686137177    -3.3446273996
