          6
Energy: -0.004766186107376006 Kcal/mole
 He    -6.5812065933    -0.3378708937    -3.4346916285
 He    -0.2880739584     7.0932739227     0.8666006846
 He     5.2545928108     0.9015440954    -4.5684485468
 He    -6.0985902319    -2.4779859242     2.1224255525
 He    -2.8076203658    -0.4376264936    -5.2061174917
 He     5.4210933466    -3.3761489123     5.0626818216
          6
Energy: -0.012338659494948678 Kcal/mole
 He     2.8797512125    -6.7059661265     6.0662402997
 He    -2.1978109791    -6.2540731481     1.4668311549
 He     6.1942448875     6.3722055657     5.2019062693
 He     3.7023123830     1.7183708594     1.1418333897
 He    -1.9168431146     1.5533116091     7.0310287364
 He     4.9182445611    -1.2699753241     2.3197016249
          6
Energy: -0.004068106584652938 Kcal/mole
 He    -1.3374811273     5.5039095837    -0.6802053500
 He    -7.3119214856    -3.8243057240    -6.6035424343
 He     2.6846634921    -4.8736000399    -0.1407696988
 He     0.7991324620     5.2930897693    -5.3366897524
 He    -5.4217000158     0.9616347328    -4.2578217297
 He    -3.2316019206    -4.4587125949    -3.3691132034
          6
Energy: -0.003611201770581537 Kcal/mole
 He     4.7289511473     4.0414660400     2.7953463433
 He    -6.3505660849    -0.6148147312     3.1637963469
 He     0.2594026556     2.0039691113    -6.1746376350
 He     4.0081669958     2.3873748607    -2.8311967301
 He    -1.7050534160     4.3288298354     1.9507662028
 He     6.2510798916     5.8975422434    -6.3552977899
          6
Energy: -0.014236604765479268 Kcal/mole
 He    -4.5036556533     5.3074682153    -0.4687449125
 He     4.1212667494    -7.3660017376     7.0043938550
 He    -2.6312671094    -1.1699590640    -3.9203068969
 He    -3.9736228354    -6.3560956702     0.7485280626
 He    -2.3904185110     1.9054804497    -2.3649952889
 He     6.3688050631     2.3736909443    -6.0105530074
          6
Energy: -0.0016376857890803345 Kcal/mole
 He     0.2262005973    -6.2825844700    -4.8697815232
 He     7.0719220073    -1.4663326090    -3.2691281725
 He     2.0824178482    -2.7312310989     6.1392035575
 He    -1.5574184532     5.1870238392     5.2882625884
 He    -2.7718450060    -6.5065912630     2.4346449325
 He     5.0816044492    -5.9049368769    -0.6561843517
          6
Energy: -0.012595623030874619 Kcal/mole
 He     1.1393503828     3.8298293889    -3.1144521437
 He    -4.9824187679    -4.5621681046     4.0957176761
 He    -4.8973613578     5.7521085416     3.6887608752
 He    -7.0762220222     4.4033410839     0.5569120854
 He     4.7841947789     1.3162086867    -4.9317773477
 He    -3.5067169690    -1.0248138847     4.9671556372
          6
Energy: -0.0042362591843370725 Kcal/mole
 He     2.6278899723    -2.1818259652     1.0547304746
 He    -7.0373545717    -7.1681981037    -6.3903471890
 He     6.5164608427    -6.4041215485    -3.6561779119
 He     6.8827243437    -1.6323268009     0.6019944086
 He    -1.9650532666    -3.2669628299     5.1632140682
 He    -7.4377757285     3.4975818394     4.9664752458
          6
Energy: -0.025419084596759543 Kcal/mole
 He     3.1006276689     5.8454258649    -5.7190549940
 He    -2.4559836887    -0.8889931880     1.6861449720
 He    -3.5874352473    -1.3039000732     4.8205081968
 He     5.5776862841    -6.1811369475     3.4706840775
 He     5.1029900015    -2.0876329680     7.1261882059
 He     4.6356658874    -7.1701171446     6.6619634879
          6
Energy: -0.24566936765820205 Kcal/mole
 He     1.2704156205    -2.2117332834     4.5614008606
 He     1.0877803997    -5.0425568230     5.0638332113
 He     0.8733709721    -3.1511338395     7.2164848169
 He     3.0065036220    -4.0009734594     3.1660681951
 He     4.0038292952    -1.4734979169     4.1088929958
 He     3.3836200113    -3.5318583060     5.9779248485
