          6
Energy: -0.24589930448793149 Kcal/mole
 He     5.6924897171    -0.8700211120    -3.9513017127
 He     4.8734285434     1.2344859959    -2.2004616087
 He     4.7224470791    -1.4919810175    -1.3584900187
 He     4.2382871209     1.3830356091    -4.9667934316
 He     2.9113936264    -0.5425849107    -3.3391873663
 He     2.6295591610     0.3712040025    -0.6571510901
