          6
Energy: -0.12267123277009595 Kcal/mole
 He     0.1261866776     0.3966997775    -3.9944615985
 He     5.3674913377     2.9052493654     0.8517294365
 He    -0.1282184179    -1.1499697515    -6.3839657206
 He    -2.1686821517     0.7447915925    -5.7103859589
 He     4.1263157902     1.7372847685    -1.4679010301
 He     2.5641094067     2.3269691933     0.8556836404
