          6
Energy: -0.0010303025728722543 Kcal/mole
 He    -6.3905811842     1.9771067619    -2.8089961242
 He     0.1198358784     5.1680158721     6.1511794828
 He     7.0752068122    -6.6447783983     2.0403091752
 He    -5.6812662728     2.4716038789     3.8974282913
 He     3.0291264821    -2.5275498995     6.5482165483
 He    -4.4010663724    -2.9804108652    -6.4516386241
          6
Energy: -0.004514676910040155 Kcal/mole
 He    -4.7211084062     7.1588001414     6.2330158662
 He     4.0100767930    -2.2356289515     5.8670008985
 He     5.5703418798    -5.3203474055    -3.0903718449
 He     6.6039016717    -6.4520831347    -5.1667144304
 He     6.5004655607     4.3452847972     1.3318876951
 He    -5.1770976779     3.3079476946    -0.2275336114
          6
Energy: -0.008755581681777537 Kcal/mole
 He    -5.2645962736    -3.9102704474     6.9478362703
 He     0.8111709746     2.1589608276     5.9270714148
 He    -1.7511809930     2.6301281325     6.0671551589
 He    -0.1867513582     1.9408432909    -2.6743344719
 He    -6.4693012190    -6.4676707181     0.5374752544
 He     5.8831338555    -3.5534435929    -6.2576233532
          6
Energy: -0.019131347685226993 Kcal/mole
 He     0.9430035661    -1.4174080373     7.3311226563
 He     2.6097534989     3.0242461164    -6.1509648016
 He     5.4143166245    -6.4646600879    -1.0219642672
 He     7.4049803944     6.7248169872     1.0381606963
 He     2.7981867283    -4.8197149123    -1.2756988547
 He     5.0773510045     1.0510373777     6.6656333363
          6
Energy: -0.010042604371900106 Kcal/mole
 He     2.7692992137    -1.7151007390     6.4386800112
 He     0.6886894275     4.9565577268     6.5421760077
 He    -2.0348212120    -5.1924745003     5.1126278394
 He    -6.9063997280    -5.4110491715    -3.3070526681
 He    -5.6785357533     6.3180491996     0.1297520707
 He    -4.9217409090    -5.9784061097     7.0719489643
          6
Energy: -0.010412786508773628 Kcal/mole
 He     3.3358278316    -5.4698487825     1.7433349070
 He     6.9166660898     2.6815945236     3.6202219874
 He     5.2741846267    -7.3693457829    -5.2880055992
 He     5.7048409831     5.1193043520     5.8334663731
 He    -4.0772209574    -4.7898946550    -6.3571468908
 He    -4.4002230440     5.2527920717    -7.4204940125
          6
Energy: -0.007058535013974734 Kcal/mole
 He    -0.1210451731    -4.3877548876     7.4168140839
 He     7.1698596155     4.0785768845     4.6865542250
 He     6.5242909272    -0.9019295061    -1.0005047316
 He    -2.6672117511     4.3932889131    -6.1248739834
 He     3.7941349211     4.0838898307    -4.2358911804
 He    -3.9637955602     4.7257596687    -2.5140539710
          6
Energy: -0.008022808880815054 Kcal/mole
 He     3.5792172183     5.6672840126    -1.1194118069
 He    -1.3235865124    -5.5739779461    -1.4186848319
 He     3.9206156142     5.9541940382    -5.1765757496
 He     1.6607601738    -3.3692511906     5.3908633452
 He    -3.4949754831    -3.4277529169     2.1855959852
 He     3.5361511343     7.4757320158     3.9598295970
          6
Energy: -0.018187642288726363 Kcal/mole
 He    -1.1794592195     0.2666581821    -2.5534479154
 He     5.7764288297     2.9446130084     6.3564247686
 He    -0.2087668536    -2.0008110609    -7.3980081129
 He    -3.4214425935     0.1197811491    -3.9990432195
 He     2.9202387635    -6.4049002407     0.1424183513
 He     2.2721112532     0.8586490779     1.2824103710
          6
Energy: -0.12267123277009595 Kcal/mole
 He     0.1261866776     0.3966997775    -3.9944615985
 He     5.3674913377     2.9052493654     0.8517294365
 He    -0.1282184179    -1.1499697515    -6.3839657206
 He    -2.1686821517     0.7447915925    -5.7103859589
 He     4.1263157902     1.7372847685    -1.4679010301
 He     2.5641094067     2.3269691933     0.8556836404
