          5
Energy: -2.885642809942444 Kcal/mole
 Kr    -4.7381888811     3.4957185062    -2.2940599195
 Kr    -4.8284430620     7.1209156965    -0.4918831837
 Kr    -8.2983269766     5.4314892743    -1.7848604389
 Kr    -8.0705357028     1.4068233884    -1.2830281527
 Kr    -6.3311544702     3.8731357809     1.4314290344
