          5
Energy: -2.885508173990462 Kcal/mole
 Kr    -1.3311466151    -2.2591987881     3.0843162798
 Kr    -2.0960878879     1.7103981191     2.7024731937
 Kr    -1.8535164576    -0.6581921894    -0.6117285789
 Kr    -0.3127572596     3.0881621462    -0.6911487772
 Kr     1.5035618229     0.2173892243     1.5426840480
