          5
Energy: -2.885452196994678 Kcal/mole
 Kr    -6.4036107071     1.6091277268     3.7810426049
 Kr    -8.5410648906     0.7553690361     7.1208689581
 Kr    -2.7844355732     3.1234481221     4.8575236653
 Kr    -4.5028431605     0.2406177074     7.1166968674
 Kr    -6.0762535127     3.9979858923     7.0719826267
