          5
Energy: -0.6036711480015623 Kcal/mole
 Kr     0.6757174535     0.8175703128     5.4614244232
 Kr     7.5860185432    -2.0688332779    -4.2731926096
 Kr     8.0383555896     6.6143120589     8.6016923298
 Kr     4.8456433417     3.1508416325     8.9669444769
 Kr     3.3597314052     4.7449502518     4.2289677734
          5
Energy: -0.01620951863125321 Kcal/mole
 Kr    -7.4883440595     8.6414607540    -6.0090974325
 Kr    -5.7967283439     5.1993990551     3.8763386960
 Kr     8.7921853181     4.3114965638    -3.7573059478
 Kr     0.9633240314     7.8026405345    -7.4170501599
 Kr     7.6039214595     6.6082806440     7.1564422712
          5
Energy: -0.23486934555934566 Kcal/mole
 Kr     8.1887995924    -7.5668258330    -7.4032733586
 Kr    -1.5946022180     7.3863255507    -3.7222262526
 Kr     1.5033855831    -0.2217697810     8.6405053487
 Kr    -9.0185769156    -0.7497734000     3.7543704738
 Kr     3.0453719041    -2.6661250123     5.0650735441
          5
Energy: -0.5019711715130253 Kcal/mole
 Kr     7.5899086649     6.1155670954     4.5396221711
 Kr     7.4029103445     2.1365616962     5.8394842131
 Kr    -8.6463217343    -4.1486073513    -4.0418259180
 Kr    -4.8961759137    -1.6902623902    -2.2715722863
 Kr    -7.0257213976    -0.8895390253     6.9946578819
          5
Energy: -0.9004979661720266 Kcal/mole
 Kr     0.1825274231    -8.6521387420     0.3502528508
 Kr     1.5821163829    -2.2429470315     3.0619624294
 Kr    -0.8213561149    -8.6745504599     4.6970162006
 Kr     6.9072028928     4.4174724553     8.0591596326
 Kr     2.7532636124    -6.1592204920     4.9836912478
          5
Energy: -0.8280608047536758 Kcal/mole
 Kr    -0.0568492154     4.9865176153     8.1987565011
 Kr    -1.2763263622     4.1124027056     4.2127621453
 Kr     7.6148573782     7.5719359822    -2.0271638040
 Kr    -1.5694127129    -0.7213312729     4.3760982436
 Kr     2.8991969726    -0.5093924314     4.8739783544
          5
Energy: -2.2684503404131946 Kcal/mole
 Kr    -1.1491066471     4.3190233161     5.9934999629
 Kr    -0.5697811628     0.2227027891     7.2051735614
 Kr     2.0685720538     2.3933147955     2.6884964720
 Kr     2.7344421250     3.5236239439     6.5300828194
 Kr     3.3607659764    -0.4271104143     6.0292809195
          5
Energy: -2.536645285705652 Kcal/mole
 Kr     0.1234522374     2.4836281179     3.8256770992
 Kr    -3.4972636072     1.0464737943     3.2121294072
 Kr     1.9734158184     1.3453050253     8.0840933040
 Kr    -1.0365139726    -0.7541757226     6.0117299374
 Kr    -2.7474752748     2.7407046134     6.8056091442
          5
Energy: -2.7567237639288975 Kcal/mole
 Kr    -6.2179524556     1.5150550955     3.6267699864
 Kr    -8.6047506332     0.4136424281     6.7418336170
 Kr    -2.6508531589     2.7717836950     4.9454115990
 Kr    -4.6426815977     0.0165231426     6.9567498814
 Kr    -6.1347124267     4.0692541359     6.9687077840
          5
Energy: -2.885452196994678 Kcal/mole
 Kr    -6.4036107071     1.6091277268     3.7810426049
 Kr    -8.5410648906     0.7553690361     7.1208689581
 Kr    -2.7844355732     3.1234481221     4.8575236653
 Kr    -4.5028431605     0.2406177074     7.1166968674
 Kr    -6.0762535127     3.9979858923     7.0719826267
