          5
Energy: -0.22334648554450137 Kcal/mole
 Kr     1.3005771545     7.2768000579    -2.1998510508
 Kr     7.1166959386    -4.6348385043    -3.2594583734
 Kr     2.4793056013     2.8151435695    -0.7821162750
 Kr    -0.2536978114     3.9793387814     7.4827723542
 Kr    -4.0670496192    -1.6677772388     4.7738443026
          5
Energy: -1.8081606724074843 Kcal/mole
 Kr     5.7607484930     2.0009960440    -3.6695702527
 Kr     3.3300842441    -1.2683852696    -2.2710194156
 Kr     2.1740251686     0.7517272785    -5.7256478881
 Kr     1.4027755192    -0.1276228756     1.0951502466
 Kr    -0.5328464174    -3.0447936000    -2.4410534220
          5
Energy: -0.4238469802014406 Kcal/mole
 Kr     1.2304559333     4.0871543905     5.0204666042
 Kr    -4.1034621882     7.3441666389     8.7947896934
 Kr     4.7876063941     1.3064366263     8.7751478419
 Kr     2.8789840870     0.7322513815    -2.0211213184
 Kr    -6.1591521642     8.7682597747     5.5831216995
          5
Energy: -1.2603035197192856 Kcal/mole
 Kr     4.2670984213     1.4220580029    -2.4955267860
 Kr     1.2185491941    -0.4630880091     1.2142003149
 Kr     1.9873105239    -2.6389992078    -1.7226358961
 Kr    -0.5358369890     7.5796611953    -3.4866447151
 Kr     0.1558208304     1.5142564005    -3.1901979713
          5
Energy: -1.4585326279027624 Kcal/mole
 Kr    -1.8412297369    -4.1051396118     0.6034844799
 Kr    -1.8713521791     2.3476746116    -5.3671614527
 Kr    -5.4714483333    -5.3375139786    -1.5012578397
 Kr     0.5112567187    -0.6774785794    -5.3737269021
 Kr    -2.9721529801    -1.3324455930    -2.2142272212
          5
Energy: -2.184341885850572 Kcal/mole
 Kr    -1.8361244612     1.3143581637    -3.4248844653
 Kr    -2.1972517747    -2.6345563857    -5.6036166050
 Kr     0.7475738173     0.7534714568    -6.1748218264
 Kr    -5.4126723814    -2.9943659051    -7.9605755629
 Kr    -3.4205504271     0.6008663789    -7.8131180446
          5
Energy: -2.5558599641794353 Kcal/mole
 Kr    -0.9326884749     0.3569844859    -4.7948913736
 Kr    -0.3891745671    -3.6422529552    -4.5585426592
 Kr    -4.3007347403    -2.6594251089    -5.8523993705
 Kr    -4.8603668084     1.3087512139    -4.6800226516
 Kr    -3.9270539129    -1.7153429285    -2.0839683744
          5
Energy: -2.5809114382793203 Kcal/mole
 Kr    -4.2319182777    -1.7304317781    -3.0817478387
 Kr    -7.4215558755    -4.3402143145    -1.8038585144
 Kr    -7.0083564626    -3.1903403942    -5.7252866335
 Kr    -7.8142684922    -0.3235738734    -1.5609229062
 Kr    -4.7930285539    -1.9283158688     0.7283720459
          5
Energy: -2.8374586317071615 Kcal/mole
 Kr    -3.7645115887    -0.6436508423    -3.1936598600
 Kr    -4.2423353747    -4.2914178428    -1.4496238158
 Kr    -5.3859244635    -3.8064171172    -5.2108974699
 Kr    -7.3615732541    -1.8222789170    -2.1973894339
 Kr    -4.6071375960    -1.0476615335     0.7512319966
          5
Energy: -2.8852466814373003 Kcal/mole
 Kr    -3.4295998363    -0.8983867463    -3.1943289301
 Kr    -4.3303258274    -4.4488436630    -1.3804477467
 Kr    -5.4310094135    -3.7751554476    -5.2360674023
 Kr    -7.3079325814    -1.8006903195    -2.2469464341
 Kr    -4.6245674789    -0.9548022129     0.6856814866
