          5
Energy: -0.03021266874900796 Kcal/mole
 Kr     1.7979272234    -2.8896897657    -6.0052921052
 Kr    -2.7238322437     1.0944135641    -0.5908594609
 Kr    -6.3659391922    -5.9808420920     0.0427913061
 Kr     6.4737195759    -7.5682556960     7.0053991013
 Kr    -7.9875706651     3.6190881054    -7.8020415689
          5
Energy: -0.5682648460212513 Kcal/mole
 Kr    -3.1569337651     7.6686339717     4.5683227408
 Kr    -2.7140836867     8.0314313193     0.1130820245
 Kr    -3.3950244735     4.6287686036    -3.6230352688
 Kr    -0.6710119702     3.5032004682    -7.6815075804
 Kr     3.2357313904    -0.8587859034     2.6599836167
          5
Energy: -2.27852269708362 Kcal/mole
 Kr    -3.4046460260     8.0026459025    -1.7262180631
 Kr    -3.2039907256     4.2893311440     1.6001820968
 Kr    -1.5938698364     3.9429709912    -2.5155315636
 Kr     0.1658353116     7.2114497277     0.1045358306
 Kr    -2.9671321589     8.0131259580     2.2012936043
          5
Energy: -1.9865170080515482 Kcal/mole
 Kr    -4.2668461306     4.0342906790    -2.9083919350
 Kr    -3.0566103789     2.2707695624     0.8255215285
 Kr    -7.2064944362     2.7229624852     2.1482504823
 Kr    -4.5379341745     6.6165291849     0.3917741668
 Kr    -8.0901728946     3.4330423754    -2.3327781857
          5
Energy: -2.2557924801650917 Kcal/mole
 Kr    -8.1069459765    -5.6407471039    -3.1890305980
 Kr    -4.4323456608    -5.4221319361    -4.8076348823
 Kr    -6.1310157307    -1.7110451800    -5.3228766339
 Kr    -7.5614340198    -6.7210404506    -7.1556705578
 Kr    -8.9567319160    -3.0197344587    -7.4188847566
          5
Energy: -2.6765585497830333 Kcal/mole
 Kr    -4.5502175406    -1.3738704788    -2.5379538144
 Kr    -6.0608422461    -2.8130388178    -6.5184888981
 Kr    -2.2033858802    -1.3076383490    -5.8529392564
 Kr    -0.4524719782    -2.3628865900    -2.0237622218
 Kr    -2.9388273385    -4.9266174050    -4.2248104680
          5
Energy: -2.434221322528987 Kcal/mole
 Kr    -5.1251828494    -1.8179372353    -3.4635035777
 Kr    -0.3483065254    -3.1928324103    -3.6924941052
 Kr    -1.9717029031    -0.7063637054    -6.6599848544
 Kr    -5.3302348129     1.8770364170    -5.6625925027
 Kr    -2.0384485547     0.9779421897    -2.9921481222
          5
Energy: -2.8022098309038785 Kcal/mole
 Kr    -4.4585326518    -0.5184918845    -2.7249671584
 Kr    -4.2626662417     3.5917492439    -2.4062135212
 Kr    -7.7749516369     1.5252740642    -1.8060405671
 Kr    -6.9056326860    -1.9433657367     0.2395836305
 Kr    -4.6050296536     1.1007155034     1.0564177520
          5
Energy: -2.8399169323715316 Kcal/mole
 Kr    -4.5746356183     3.3529541216    -2.1500275254
 Kr    -4.7735813507     7.0746221217    -0.6740848491
 Kr    -8.1804410633     5.4297014576    -1.9854745593
 Kr    -7.9337522171     1.3973672220    -1.3970582642
 Kr    -6.3511990157     3.7722961012     1.3991706731
          5
Energy: -2.885642809942444 Kcal/mole
 Kr    -4.7381888811     3.4957185062    -2.2940599195
 Kr    -4.8284430620     7.1209156965    -0.4918831837
 Kr    -8.2983269766     5.4314892743    -1.7848604389
 Kr    -8.0705357028     1.4068233884    -1.2830281527
 Kr    -6.3311544702     3.8731357809     1.4314290344
