          5
Energy: -2.8852466814373003 Kcal/mole
 Kr    -3.4295998363    -0.8983867463    -3.1943289301
 Kr    -4.3303258274    -4.4488436630    -1.3804477467
 Kr    -5.4310094135    -3.7751554476    -5.2360674023
 Kr    -7.3079325814    -1.8006903195    -2.2469464341
 Kr    -4.6245674789    -0.9548022129     0.6856814866
