          6
Energy: -3.0308264336985555 Kcal/mole
 Xe    22.5559471700   -28.2538499419    28.4627708267
 Xe    24.8566543105   -25.2794094641    30.7840173064
 Xe   -10.6038020038    -8.1593190437    26.2397036252
 Xe    22.4334344403   -23.9785306211    27.3270768260
 Xe    26.1053582978   -26.3484067302    26.6824309571
 Xe   -10.4434933549   -11.8652466599    23.8431129258
