          6
Energy: -0.003274150461170273 Kcal/mole
 Xe    17.9308299531   -32.0239896889    32.8209901027
 Xe    20.3125844608   -21.8360445457    36.7948359348
 Xe   -14.4861528007    29.5351860652     0.8816589016
 Xe     6.9864900313     1.2007623654    10.5929748300
 Xe    38.9711741477    37.2945103094    18.8722406753
 Xe   -26.5922645055   -37.4273495799    38.2952626453
          6
Energy: -0.3948578168288975 Kcal/mole
 Xe   -15.7866300796   -27.5234414630    10.5578245221
 Xe    24.1158172374   -16.1962292427    34.2738045039
 Xe   -38.7871459563    25.9037875045   -17.0658101146
 Xe    27.0605063386    -3.8383933579    -9.8232262662
 Xe    29.2830402535    24.1507048210    26.0980728599
 Xe   -18.4072462600   -31.3261125502    11.3392873619
          6
Energy: -0.3618869953363619 Kcal/mole
 Xe   -20.8829749059   -21.2006712932    38.5197125632
 Xe    33.6090090378   -13.0903320834     4.6446163227
 Xe   -32.8103065288    -9.1725402013    14.7549912906
 Xe    17.6539169171    31.8329739862   -27.2555509225
 Xe    15.4968000523    38.1419563979    35.2910861920
 Xe   -31.8341246609    -5.1804033461    12.2432513348
          6
Energy: -5.939089017702996E-5 Kcal/mole
 Xe    19.3714438362   -23.4237808980    31.8428587175
 Xe    -0.0792381954   -33.5703568621    35.9578572157
 Xe   -29.6691941248   -17.3313911148   -17.4381034296
 Xe    13.7702592165    30.5163244965   -35.7988713023
 Xe    28.2088498508    22.3926835456    28.7275748630
 Xe   -29.1742931498   -33.2879336390    18.5158586775
          6
Energy: -0.004959481704036337 Kcal/mole
 Xe    -6.7732908737   -18.5252203105    14.4567434051
 Xe   -11.3571261457   -20.1107343616    23.7089691690
 Xe   -14.6424193847   -39.0175549194   -39.7831033186
 Xe    30.7694994324    19.6029154575    27.0046359868
 Xe    23.9393794680     3.6389508849   -17.9386719531
 Xe   -24.2285043456   -36.5550422495     2.4718011817
          6
Energy: -0.29330101139630016 Kcal/mole
 Xe   -15.9423917363   -34.7047489170    10.2243286125
 Xe   -12.4323922760   -37.9040663525    12.0276674422
 Xe   -22.4468363612    -4.1754973664   -14.5796122751
 Xe     5.8626412316    27.2073286797    35.8386585306
 Xe    16.7791157889    39.9751637335    -9.5117417239
 Xe   -40.9423066148   -13.2116795941   -34.7577264031
          6
Energy: -0.7660658201511539 Kcal/mole
 Xe   -18.5062035037   -34.6003642783    12.5037165962
 Xe   -22.7850213721   -36.3077473708    12.1681297993
 Xe   -31.2166694749     8.4141216759   -20.0423893979
 Xe     1.2818678399    24.6488843407    19.3606103040
 Xe   -18.2590986813    37.4628359205     6.3331402443
 Xe   -33.5300241218     4.6497942955   -22.0057792045
          6
Energy: -0.854903938622257 Kcal/mole
 Xe   -28.7068107244   -39.3593143616     8.2416294164
 Xe   -29.3332883808   -37.9123384180     4.1467523745
 Xe   -31.9558795744     8.4808922933   -29.3962291226
 Xe   -22.2364554361    28.6567598613    30.4180471676
 Xe   -39.2911405713    17.4782394758     6.1513354739
 Xe   -29.0744687142    10.5870935282   -26.5860253502
          6
Energy: -0.8572749361583658 Kcal/mole
 Xe   -20.0286976953   -39.6883278413    -1.6074978633
 Xe   -22.8771662774   -40.1236662172    -4.8371354854
 Xe   -27.0696664976     4.0448200080   -37.1031681564
 Xe   -18.6821752191   -15.7050145619    38.5740830847
 Xe   -18.0795891982     6.0343674178     9.8852910903
 Xe   -25.9712275907     3.5969609825   -32.8919447032
          6
Energy: -1.2990069043699854 Kcal/mole
 Xe   -19.5688512977   -39.1911279633    -2.0264026045
 Xe   -23.0245426113   -39.4942707237    -4.7606360354
 Xe   -26.6516574799     4.0883095919   -37.2518102700
 Xe   -14.9655188265    -7.1215581010    22.6530704680
 Xe   -14.2532079123    -5.4076908220    18.6452465555
 Xe   -25.5075557484     3.0560121813   -33.1124081400
