          6
Energy: -2.9725941014918016 Kcal/mole
 Ar    -3.0415138322    -8.2938844408    -2.7521409081
 Ar    -3.9218626918    -4.7116206246    -6.6622372174
 Ar    -4.8248065654    -4.9498955987    -2.9699325087
 Ar    -2.1121836798    -8.0558478077    -6.4474811010
 Ar    -1.1878899254    -5.2417626907    -4.0705433284
 Ar    -5.7411426266    -7.7556140578    -5.3556976314
