          6
Energy: -2.8767844678795607 Kcal/mole
 Ar     4.5213226431     1.3465372914    -6.2575991413
 Ar     1.0934865991     0.1766137210    -5.0487285710
 Ar     2.1293453898     3.8210887869    -4.6351735523
 Ar     7.1868294528     0.0983597610    -3.8333943081
 Ar     4.1278660311    -2.0450550433    -4.5611203834
 Ar     3.7885208777     1.1368997800    -2.5066086634
