          6
Energy: -0.29380975616185606 Kcal/mole
 Ar     3.6801599340     3.5739616899    -2.1942268623
 Ar     3.8428108732    -3.9829643286     1.2356399768
 Ar    -5.4686478870    -6.4046194673    -0.7688216044
 Ar     5.3396816284    -3.2205379109     4.6783847593
 Ar    -0.3454379541     7.6460897848    -1.5841805611
 Ar     7.6178891799    -3.0825438041    -5.3478067691
          6
Energy: -0.27185169822966576 Kcal/mole
 Ar    -5.3534787161     0.7315823648    -0.1261206704
 Ar     4.2180037275    -2.2743430965     8.8468646219
 Ar    -5.4905199391    -6.8261815378     8.7117262367
 Ar     8.7575019425    -0.9066681128     2.2887942605
 Ar    -6.2939296963     7.1128064310     0.5131066018
 Ar     1.4236404940    -4.8839462631     8.3952487902
          6
Energy: -0.08674256018804538 Kcal/mole
 Ar     0.3203072861     3.5221934588    -3.3478548764
 Ar     5.1734291017     5.1746844863     0.6283023589
 Ar    -3.9995863650    -5.7466745704    -8.4080343446
 Ar    -1.3337012914     7.7315639773     6.8728520891
 Ar     5.2757359269    -8.1507132691     4.7451191589
 Ar    -6.1349116197     7.4796732535     9.0087800543
          6
Energy: -0.383240112910118 Kcal/mole
 Ar    -4.4977414196    -1.2360699869     3.2383284549
 Ar    -5.0219735794     1.4203220052     1.1914085211
 Ar    -6.7705728668     3.7594808047    -3.3216097781
 Ar    -2.1446763836     8.5062341117    -1.3749312007
 Ar    -4.9803018537     8.1321945958    -4.2975982219
 Ar    -3.9562194512    -5.8733290057    -6.0134820864
          6
Energy: -0.8889699950999946 Kcal/mole
 Ar     2.5794852474    -4.6446910686    -4.2871895692
 Ar     3.3966628713     0.5852733746    -2.1870118372
 Ar    -4.0495381975    -0.9306680736    -8.4928625430
 Ar     1.6042521656     0.3547324430    -6.4334804542
 Ar     5.2678001931     2.9733641026    -7.8255619196
 Ar    -0.5772542739    -1.0069541703    -3.5778803001
          6
Energy: -1.9890723441608325 Kcal/mole
 Ar     6.9624070528    -2.7740923146    -4.3325977465
 Ar     6.8513925909    -0.3286886151    -8.8378003651
 Ar     4.2950999365    -0.1925441963    -4.9289536821
 Ar     4.1184093653    -2.9510409185    -2.3339324460
 Ar     0.7046363489    -2.6684470434    -4.7667454625
 Ar     4.5594649737    -3.1334890573    -7.5772878221
          6
Energy: -2.4344846289524846 Kcal/mole
 Ar     2.0834029672    -1.0469950749    -6.2891002901
 Ar     1.5315393865     1.0403762156    -1.9515289578
 Ar     4.0612727351     1.9763430597    -4.8760040423
 Ar     2.7214058924     2.3883600205    -8.6302262117
 Ar     5.8521118869    -0.5044200997    -7.0052674826
 Ar     4.3947312086    -1.5738204322    -3.1370688298
          6
Energy: -2.544743459307361 Kcal/mole
 Ar     0.7212713148     1.2093738491    -5.5652355704
 Ar     0.8342524766    -2.8000902923    -5.1534664290
 Ar     0.8794007449    -0.8039816664    -2.0963549250
 Ar     4.7460176482     1.9523563591    -6.6060863134
 Ar     2.1315359376    -0.7033216970    -8.3736341138
 Ar     3.6972986579    -0.7630627290    -4.4348235166
          6
Energy: -2.745324874651602 Kcal/mole
 Ar     4.4994964090     1.2735216989    -6.3412770695
 Ar     1.0416913252    -0.0373717613    -4.8280061126
 Ar     2.0158708444     3.9107909632    -4.5258504431
 Ar     7.1808066520    -0.0134554966    -3.8391600715
 Ar     4.1700553034    -2.1678630695    -4.7692465658
 Ar     3.8300633442     1.3799517544    -2.6181735398
          6
Energy: -2.8767844678795607 Kcal/mole
 Ar     4.5213226431     1.3465372914    -6.2575991413
 Ar     1.0934865991     0.1766137210    -5.0487285710
 Ar     2.1293453898     3.8210887869    -4.6351735523
 Ar     7.1868294528     0.0983597610    -3.8333943081
 Ar     4.1278660311    -2.0450550433    -4.5611203834
 Ar     3.7885208777     1.1368997800    -2.5066086634
