          6
Energy: -2.972132311798221 Kcal/mole
 Ar     5.0818242781    -0.2719361803    -0.0188837070
 Ar     3.5072905551     3.0468518203    -1.0052507321
 Ar     8.5178518140     1.1720804130    -0.8301092038
 Ar     6.2503912315     2.9581737759     1.6182339320
 Ar     6.9267033702     4.4601130630    -1.8381279313
 Ar     5.7453449129     1.2244964341    -3.4482277971
