          6
Energy: -0.036059730488450605 Kcal/mole
 Ar     5.0790687819    -4.5773428878     0.5667087248
 Ar    -2.1688805726    -5.4785209534     3.3307763876
 Ar     4.4015414433     1.2979320995    -3.1235048627
 Ar    -4.9200246720     3.3239525069     1.5596424014
 Ar    -3.9093939871    -0.7698211578    -5.9101930144
 Ar     3.9956999140     5.7196971935     4.8934489535
