          6
Energy: -0.14173673738176942 Kcal/mole
 Ar    -2.9897605610     3.9316859527     1.9034289049
 Ar     4.9992944028    -4.3035424474     5.8131933320
 Ar     3.4374591106    -9.0256658509     5.2880459547
 Ar     1.7844069569     4.7229748789    -7.9024069338
 Ar    -7.3202878964    -0.6614046885    -2.4830185689
 Ar     1.5850565099    -1.9029809233     1.6702200730
          6
Energy: -0.18813270869620907 Kcal/mole
 Ar     8.0838256437    -7.5039275174     5.6216484661
 Ar     0.8678406682     8.9272898026     3.9856463142
 Ar    -5.1442555906    -6.0293238794     0.7177287522
 Ar     4.7530540204    -5.8523893930     1.6899467357
 Ar     5.7150740222    -4.8482581985     7.1496655479
 Ar     1.5059411553     6.1571358769     5.7187983578
          6
Energy: -0.15517227026169716 Kcal/mole
 Ar     0.2589701697    -8.3060460104     8.5731555872
 Ar     6.6395657800    -0.3026737813     1.2721759233
 Ar     2.4881861550    -8.9395493766    -7.5703367078
 Ar    -6.6651155447    -2.7006936151    -4.0640134657
 Ar     7.2578434698    -1.3663828268    -8.7708966328
 Ar     8.5769351089     1.7016982215     4.7442838929
          6
Energy: -0.7298794640261773 Kcal/mole
 Ar    -4.0060651491    -5.9812686175    -6.0975625229
 Ar    -1.9049421562    -2.1605022063    -5.6535957811
 Ar     6.8038619839    -3.6733751454    -0.2491018885
 Ar    -2.3335976223    -5.8233017463    -1.5178177041
 Ar     8.8506701684     8.7456962612     6.9747478399
 Ar     0.0766006776    -6.5868711419    -5.2900657819
          6
Energy: -0.31720546262545873 Kcal/mole
 Ar     6.0055067097     3.0527675443    -2.4065177583
 Ar     0.4717007687    -3.8419169259     8.0399141395
 Ar     5.2186344858     3.0894723786    -6.1482168170
 Ar    -6.4522741917    -4.5596948430    -3.0203929300
 Ar     8.8107681334     8.3563551432    -1.9681349089
 Ar    -2.2510267480    -6.4680953895     0.2787532512
          6
Energy: -0.48993216053150135 Kcal/mole
 Ar     7.9368049350    -2.0197453852     6.9352406795
 Ar     5.5877740032     4.7067768703     1.0382671725
 Ar     3.4402471372    -3.8157004958     4.7722567678
 Ar    -8.2403117843    -8.7552847752     5.6704717460
 Ar     0.1404319111    -2.7275662798     8.0440226279
 Ar     5.6392953326    -0.2130344374     5.0719914710
          6
Energy: -1.410842098307564 Kcal/mole
 Ar     5.6648644214     2.3853977279    -0.1237156449
 Ar     4.2764456368     3.9835293923     3.1339817508
 Ar     7.3623090041     6.0093946386    -0.7713153909
 Ar     0.9811333868     3.8765398893     2.1522175740
 Ar     2.4598326362    -1.9517855601     5.1376613140
 Ar     2.8821808816     4.8916476307    -0.7561223125
          6
Energy: -2.1169347854279383 Kcal/mole
 Ar     2.2917203836     1.2535452184     3.7453565185
 Ar     0.2989616040     1.1430511104     0.2443709857
 Ar     3.2236886989    -2.0388906834     3.0125263328
 Ar     4.4165579988     3.7562819667     1.4950080768
 Ar     4.0473120470    -0.0646721477    -0.0283467509
 Ar     1.1354656248    -2.7089233200     0.3808457286
          6
Energy: -2.8193799835537785 Kcal/mole
 Ar     5.1520616674    -0.2075314272    -0.0398739312
 Ar     3.4052806942     3.1391550642    -1.1119587299
 Ar     8.6877535122     1.0658981476    -0.8402009674
 Ar     6.3153768736     3.2529429860     1.5876621568
 Ar     6.9100767693     4.3730695351    -1.7650540587
 Ar     5.9526691582     0.9681319086    -3.4878085652
          6
Energy: -2.972132311798221 Kcal/mole
 Ar     5.0818242781    -0.2719361803    -0.0188837070
 Ar     3.5072905551     3.0468518203    -1.0052507321
 Ar     8.5178518140     1.1720804130    -0.8301092038
 Ar     6.2503912315     2.9581737759     1.6182339320
 Ar     6.9267033702     4.4601130630    -1.8381279313
 Ar     5.7453449129     1.2244964341    -3.4482277971
