          6
Energy: -0.3715184710414216 Kcal/mole
 Ar    -6.6487800591    -2.5027173386    -1.9609749439
 Ar    -0.0406515036    -5.5478864549     0.2382400700
 Ar     5.6529643120     2.3457779605     5.5206823854
 Ar    -5.6663580900    -4.7401799733     1.9668430729
 Ar     1.0394849265    -8.2447143725     3.3022851534
 Ar     2.8771428795    -4.9230875658    -6.3655219572
          6
Energy: -0.7405364081722157 Kcal/mole
 Ar     8.1210685498    -6.0688830681     4.3973997916
 Ar     6.0135512158     0.2877002593     2.7281987983
 Ar     3.5479116075    -4.9787918856     0.3498789883
 Ar     6.9609471674    -0.0609056919    -0.5473437106
 Ar    -4.1737479203     7.0626096137    -2.8121419472
 Ar     6.3331417578    -3.1821824864     3.1107245064
          6
Energy: -0.4185329366045331 Kcal/mole
 Ar    -7.5519008985     6.2044610635     0.8976813074
 Ar    -1.9188762410    -6.6813785444    -1.9427480636
 Ar    -8.9218055075     4.9996855395     4.6970376524
 Ar     2.7633742679     8.8253360109     4.5233633754
 Ar    -4.9413142330     8.3332340802    -0.5716467307
 Ar     8.6692490625     3.0675600812    -7.8209499927
          6
Energy: -0.7076150801437082 Kcal/mole
 Ar     0.3677515608     0.5383421787     0.0897840448
 Ar     3.2848900176    -2.4351606153    -7.3834953918
 Ar     4.1894836916    -7.1211372615     5.6432967042
 Ar     0.4216543672     3.4297371913     2.7649941841
 Ar     2.7403649378     3.0900561616     6.1447988117
 Ar     0.4306533447    -3.1535533735    -0.7396374818
          6
Energy: -1.2005565177955586 Kcal/mole
 Ar    -0.1120490784    -2.6800304155     2.3249641791
 Ar     1.5973120811    -5.7718054048    -3.2342492266
 Ar     3.1184973217    -3.5826706982     7.4668017748
 Ar     5.2372985250    -7.8659436585    -1.3574714446
 Ar     1.0441564348    -6.1733840359     0.4065037232
 Ar     3.7713853849    -4.0737064664     0.9842270543
          6
Energy: -1.5042128392974214 Kcal/mole
 Ar     1.9488481978    -6.0546443831     0.8494894738
 Ar     0.1589310406    -7.1491265635    -3.1882347315
 Ar    -1.0662350142    -8.9156081878     0.3665817951
 Ar     3.8629972810    -6.4053171047    -3.1801669052
 Ar    -1.1132380139    -3.0830232601    -1.0858080318
 Ar    -3.8162413662    -7.7426559432    -3.9904288955
          6
Energy: -2.7810360104403635 Kcal/mole
 Ar    -4.0600581187    -7.4917554178    -4.3225025761
 Ar    -5.0268857192    -4.0799263552    -5.9883049782
 Ar    -5.2912852329    -4.3997425953    -2.1515447037
 Ar    -2.3722182508    -6.4320611060    -7.4278174785
 Ar    -1.7440758832    -4.4928206510    -3.8929553029
 Ar    -7.8456615211    -6.0156058777    -4.4147360221
          6
Energy: -2.725481864262229 Kcal/mole
 Ar    -1.7905149260    -8.1803527464    -5.0237319429
 Ar    -5.4141537837    -4.3344185890    -3.8467665119
 Ar    -4.5685985113    -7.7541628646    -2.4517216527
 Ar    -1.9347143796    -4.2914854537    -6.4225051067
 Ar    -1.9093318551    -5.1921676977    -2.7126403034
 Ar    -4.6592461650    -6.8564683827    -6.6171452308
          6
Energy: -2.8879743418980235 Kcal/mole
 Ar    -3.2922303727    -8.2918159939    -2.6488086009
 Ar    -3.6709624384    -4.6659567662    -6.7866875450
 Ar    -4.8422108009    -4.9356551183    -2.9694545914
 Ar    -2.1524846879    -8.2601631188    -6.4348150882
 Ar    -1.2262702074    -5.2224721495    -4.0245400830
 Ar    -5.6690003539    -7.5372247522    -5.5270391328
          6
Energy: -2.9725941014918016 Kcal/mole
 Ar    -3.0415138322    -8.2938844408    -2.7521409081
 Ar    -3.9218626918    -4.7116206246    -6.6622372174
 Ar    -4.8248065654    -4.9498955987    -2.9699325087
 Ar    -2.1121836798    -8.0558478077    -6.4474811010
 Ar    -1.1878899254    -5.2417626907    -4.0705433284
 Ar    -5.7411426266    -7.7556140578    -5.3556976314
