          6
Energy: -4.028943652412683 Kcal/mole
 Kr     4.2304218290    -6.6261369328    -0.3529283283
 Kr     0.8183149241    -4.6206816391     0.5462425204
 Kr     0.3994426023    -3.5938048379    -3.3577566778
 Kr     0.8036208169    -7.4786287964    -2.3250218352
 Kr     3.8369348728    -5.5771582706    -4.2356796868
 Kr     3.8258699220    -2.7116786458    -1.3642945302
