          6
Energy: -3.899112029716848 Kcal/mole
 Kr    -0.0577832406    -3.9944721348     1.1003181565
 Kr    -3.5264006364    -6.2840015461     6.2289015691
 Kr    -0.9184051887    -3.5313246382     7.6962399016
 Kr     0.1949144097    -5.9292905976     4.6443880761
 Kr    -2.6053942553    -2.9894220432     4.0560009578
 Kr    -3.0207950779    -6.5671870721     2.2158583143
