          6
Energy: -2.346302917264019 Kcal/mole
 Kr     4.6923608003    -4.4362903550     1.7464459637
 Kr    -2.6102428190    -2.4712633516     4.5022183406
 Kr    -3.6155173234    -6.4132829182     1.0495857217
 Kr     0.0588037524    -5.1250135600     1.4998953300
 Kr     2.1532204875    -1.0974484445     1.0067961073
 Kr     2.3296073891    -4.0692750408    -1.9364503536
          6
Energy: -2.3785013070798118 Kcal/mole
 Kr    -8.0612455248    -1.8395204181    -0.8585447834
 Kr    -3.2656171480    -6.9912559034    -4.5172042737
 Kr    -6.1737188775    -3.8713151552    -4.3835801300
 Kr    -4.6514250585    -2.4578877263     2.1002158527
 Kr    -4.1285396266     1.7654976304     1.5187884743
 Kr    -3.8893027133    -0.9396953506    -1.6734297749
          6
Energy: -2.26044523981112 Kcal/mole
 Kr    -6.2155298806     4.2373860273    -2.5224815879
 Kr    -3.3378306551    -0.7195730901     2.9833496134
 Kr    -6.8863567053     1.4230061206     3.0602711883
 Kr    -6.3026904452    -3.2834702712     3.0848427885
 Kr    -6.5211005475    -3.8838402573    -1.6825067789
 Kr    -6.4524075058     0.2071161187    -1.0590623923
          6
Energy: -2.9663578973108624 Kcal/mole
 Kr    -0.0385475505     0.3098161297    -0.4350887966
 Kr    -5.4483857801     0.5298946218    -0.8880518432
 Kr     0.0033855291     4.0609163966     0.5622134446
 Kr    -4.3882185792    -1.6988652326     2.7291832933
 Kr    -3.3873106148     3.5073864955    -2.0924037923
 Kr    -3.2103026890     2.0089838055     1.7627199639
          6
Energy: -2.7784570588594195 Kcal/mole
 Kr    -7.3156982521    -1.7863863104     0.9498984188
 Kr    -5.0618091491     1.5768896698     1.6894610802
 Kr    -2.9326835798    -2.7865217666     1.7843383641
 Kr    -7.6104760970    -1.5024975418    -3.9392694660
 Kr    -4.2656555690    -0.5316437749    -1.7756518656
 Kr    -0.8660127463     1.7094866831     1.2116184350
          6
Energy: -3.19239612769569 Kcal/mole
 Kr    -1.4358963368    -2.1642602663    -1.5424362560
 Kr    -0.7461894651     1.8109717566    -2.4273722746
 Kr    -0.8463291521    -0.0054099008     2.3464525451
 Kr    -4.5489695824     1.3958151096    -1.3729008449
 Kr    -4.4158637917     2.3055302162     2.6116963351
 Kr    -4.0760978719    -1.6309493289     1.2091611690
          6
Energy: -3.680074687210439 Kcal/mole
 Kr    -3.7488249763     0.4913150448    -0.7581786195
 Kr    -3.5938607415     0.6596005315     3.4174330081
 Kr    -1.5616144590     3.5274678584     1.0653234717
 Kr    -4.3939547460    -3.0156064583     1.1644581867
 Kr    -5.6584651384     3.3664783834     1.1247862141
 Kr    -7.4637680433    -0.1436677363     1.8407759472
          6
Energy: -3.5800745151036453 Kcal/mole
 Kr    -1.3952074260    -4.5889186557     0.2163571260
 Kr    -4.9651349297    -1.6552475768     4.6390752943
 Kr    -0.8520750847    -2.1655969920     4.8686183279
 Kr    -3.4599417547    -5.1468839460     3.4603758581
 Kr    -2.1273474457    -0.4409850234     1.1882428989
 Kr    -5.1477592082    -2.9879294014     0.6468483837
          6
Energy: -3.8002508923132514 Kcal/mole
 Kr    -0.2245506404    -4.2838326391     0.6990486364
 Kr    -3.5688264576    -6.0029816994     6.1562245001
 Kr    -1.0226606579    -3.4371474192     7.7258890217
 Kr     0.2201931906    -5.8409529688     4.6164741520
 Kr    -2.3287333393    -2.9768828631     3.8048141958
 Kr    -3.0300914191    -6.6957768011     2.1220461756
          6
Energy: -3.899112029716848 Kcal/mole
 Kr    -0.0577832406    -3.9944721348     1.1003181565
 Kr    -3.5264006364    -6.2840015461     6.2289015691
 Kr    -0.9184051887    -3.5313246382     7.6962399016
 Kr     0.1949144097    -5.9292905976     4.6443880761
 Kr    -2.6053942553    -2.9894220432     4.0560009578
 Kr    -3.0207950779    -6.5671870721     2.2158583143
