          6
Energy: -0.5917368475775986 Kcal/mole
 Kr     5.4336434593    -0.7944400261     4.6272443185
 Kr    -2.0191131499    -1.8339071951    -1.8854617710
 Kr    -7.6574985747     6.9560683161     0.4718520192
 Kr    -2.9556954219    -5.5550720639    -2.4364075090
 Kr    -5.3151421659    -4.5718430455     2.0323344395
 Kr     7.6830633673    -5.7929896683     5.2387093481
          6
Energy: -0.45981861208433106 Kcal/mole
 Kr    -1.9617460146    -5.6097439188     5.8074062447
 Kr    -2.4494974832     3.7011970345     4.1974108869
 Kr    -6.5789579915    -2.9678574698    -1.6244529867
 Kr     2.0404319404    -2.1836951151    -1.8415286669
 Kr    -6.7314215142    -7.5453602858    -5.8572803721
 Kr    -1.2039586592    -0.0158647973     1.1300887639
          6
Energy: -0.8192346524976939 Kcal/mole
 Kr    -1.7827995319     1.7818466862     2.7446363312
 Kr    -5.2664683166     4.2717033385     0.3352466417
 Kr    -2.0598116843     5.0144382298    -1.7504463180
 Kr     1.5687141780     0.3448851432    -6.5942420044
 Kr    -5.4525251863    -5.1680435624     3.9985807570
 Kr     0.6947276520     3.6947315625     0.0785819672
          6
Energy: -0.4412921992401122 Kcal/mole
 Kr     3.1304055878     0.0480560818     4.5903352752
 Kr    -6.7037269149     2.2263140997     3.5967467652
 Kr    -4.8213804444     4.4488020324    -6.6668909038
 Kr    -5.5662082959     4.0551797351     0.2141383098
 Kr     7.5899408945    -7.8761010665    -2.1612014828
 Kr     2.5754182213    -4.8011910340     7.2484308990
          6
Energy: -1.375042008117376 Kcal/mole
 Kr    -3.2084358570     8.0496274455    -1.1088199230
 Kr    -5.7338438090     6.4490715857     2.1395452552
 Kr    -3.6211136791     0.9453639462     4.2062142606
 Kr     4.6215473998    -8.0818356891     0.3570895095
 Kr    -6.6488325559    -0.6510955583     1.8832034652
 Kr    -4.0144167862     3.4984561979    -0.5020813088
          6
Energy: -1.198477491564024 Kcal/mole
 Kr     1.1932549201    -1.9236144508    -2.2960684939
 Kr     3.3651884137    -4.4340405127    -5.4238969379
 Kr    -6.3131149913    -3.0788695526     4.8857162773
 Kr     3.5519375091     0.4032269309    -5.3027428974
 Kr    -5.8182454904     0.5666909956     7.4816563365
 Kr     5.8843496179    -7.8694155725    -3.8663054415
          6
Energy: -2.2878827550964367 Kcal/mole
 Kr     2.2188150336     3.7080385452    -3.7988145250
 Kr    -1.6754943956     4.9445295544    -7.9321468738
 Kr    -2.5006081043     5.3097299674    -4.1916339325
 Kr     3.3883126249    -3.2145790042    -7.8289584802
 Kr     2.8011619079     0.3238851883    -6.1468639750
 Kr    -0.7946054397     1.3614531458    -5.3763589912
          6
Energy: -3.3986697477750516 Kcal/mole
 Kr    -0.2717419632     2.7719166781    -0.8947409397
 Kr     1.2841853183     6.3308695412    -3.1926997535
 Kr    -2.4699581337     5.8045469238    -2.4447071390
 Kr    -4.5436198024     2.2529736860    -3.0439894819
 Kr    -0.0923554588     6.8078067337     0.3700812077
 Kr    -0.9141096992     3.1828545327    -4.7049227651
          6
Energy: -3.8531524680647964 Kcal/mole
 Kr    -0.0540097604     5.7202978659    -6.7012934447
 Kr    -3.2351034312     7.4615675517    -4.3210774785
 Kr    -1.9727120133     5.2389898832    -1.2353113248
 Kr     1.0792671803     3.3470315747    -3.7951801719
 Kr     0.7600867389     7.4244694387    -3.0549725596
 Kr    -2.8772476740     3.3992557788    -4.5750732704
          6
Energy: -4.028654574998449 Kcal/mole
 Kr    -0.2047063876     5.8479285283    -6.6483966328
 Kr    -2.9745677605     7.5875034864    -4.2683013955
 Kr    -1.9146924353     5.0974793148    -1.2633717045
 Kr     0.8596424254     3.3686688719    -3.6127472922
 Kr     0.8868209647     7.3868843856    -3.0651711005
 Kr    -3.0130882089     3.5757660912    -4.8461880841
