          6
Energy: -4.027907286143213 Kcal/mole
 Kr     0.8690915187    -1.6980565057     4.4089819185
 Kr    -3.1364962015    -1.1203891547     4.6428759312
 Kr    -0.7050616010     0.2298375131     7.6051837931
 Kr    -3.2030683671    -2.9155783538     8.2467460854
 Kr     0.8124919634    -3.4760703539     8.0524249966
 Kr    -1.5904294722    -4.8619805769     5.0849314878
