          4
Energy: -5.829973276287831 Kcal/mole
 H      1.9816021123     0.6170207043    -1.2635267029
 F      1.5206622763    -0.0775109960    -0.8813628834
 H      2.4265132957     2.6520175488    -0.9408146574
 F      2.6826533293     2.1200866121    -1.6424775121
          4
Energy: -5.831768329684735 Kcal/mole
 H      2.0585529412     0.6317151168    -1.1650398284
 F      1.5205015279    -0.0953117090    -1.0139713962
 H      1.9403602784     2.5390608327    -2.0394826664
 F      2.6644821643     2.1435999539    -1.6392987240
          4
Energy: -5.832347590429492 Kcal/mole
 H      1.9559805800     0.7175041846    -1.0129274589
 F      1.4642387576    -0.0512025356    -0.9225451679
 H      2.2267053450     2.2922322306    -2.3810781529
 F      2.6435277852     2.1644750512    -1.5743401803
          4
Energy: -5.82908344785875 Kcal/mole
 H      1.9982327262     0.7272894954    -1.0291587285
 F      1.4980510363    -0.0345079443    -0.9273160159
 H      2.2929377372     2.3088591241    -2.3856607990
 F      2.7244903547     2.1574293940    -1.5908524100
          4
Energy: -5.831261795779199 Kcal/mole
 H      2.0241310322     0.7430017846    -0.9347065716
 F      1.5431643151    -0.0271129219    -0.8063190494
 H      2.3569998828     2.2008759453    -2.4181570843
 F      2.7077503231     2.1563601706    -1.5720592918
          4
Energy: -5.829564139407125 Kcal/mole
 H      1.9542923330     0.7497702283    -1.0021835598
 F      1.5593669164    -0.0764679989    -0.9547145469
 H      2.3861500572     2.1855406822    -2.4463932787
 F      2.5688964194     2.2303443430    -1.5489048949
          4
Energy: -5.832546725603265 Kcal/mole
 H      1.8076200819     0.8055358498    -1.0687438057
 F      1.4790856200    -0.0476462151    -0.9977897964
 H      2.7171952499     2.0586843264    -2.4991781170
 F      2.5075636289     2.2510905089    -1.6274422370
          4
Energy: -5.831166822789669 Kcal/mole
 H      1.8645691711     0.7919076552    -0.9966430602
 F      1.5125111485    -0.0533555937    -0.9469018426
 H      2.6627318548     2.1265835002    -2.4207553766
 F      2.5643783844     2.2558381088    -1.5182539412
          4
Energy: -5.831372458810904 Kcal/mole
 H      1.7607840452     0.8640018044    -1.0837396800
 F      1.4293975528     0.0095268697    -1.0530056837
 H      3.0592207217     2.0449150612    -2.2527499582
 F      2.5984865402     2.2898924843    -1.4986948699
          4
Energy: -5.830516202276101 Kcal/mole
 H      1.7247480208     0.8735401149    -1.0672823702
 F      1.2851383739     0.0696331313    -1.1042407246
 H      3.1947931307     1.9643134143    -2.1459795883
 F      2.7532342825     2.2024360603    -1.3783778758
          4
Energy: -5.831773319336492 Kcal/mole
 H      1.7266091132     0.8541828250    -1.0940123441
 F      1.3457527751     0.0200162024    -1.0921427482
 H      3.3306358364     1.8521436444    -2.0152357214
 F      2.7296685520     2.1914407275    -1.4114105709
          4
Energy: -5.832079041181942 Kcal/mole
 H      1.6634682633     0.8870643064    -1.1000890729
 F      1.2930794726     0.0502549587    -1.0413416534
 H      3.3094052961     1.8508948079    -2.0046073082
 F      2.6588487008     2.2141584686    -1.4700938574
          4
Energy: -5.82676461718836 Kcal/mole
 H      1.6171438101     0.8909011040    -1.1275844790
 F      1.2769675890     0.0457647441    -1.0231159587
 H      3.3572881818     1.7816332081    -1.8812188117
 F      2.6350672135     2.2124402194    -1.5155807503
          4
Energy: -5.828468245721183 Kcal/mole
 H      1.6251067002     0.8792690627    -1.1551649399
 F      1.2882769647     0.0413024191    -0.9962730477
 H      3.4229196635     1.7918423996    -1.7159903467
 F      2.6174299573     2.1993718022    -1.5547603274
          4
Energy: -5.831682873851435 Kcal/mole
 H      1.6182571417     0.8618259829    -1.2204612682
 F      1.2849337611     0.0206542643    -1.0714154238
 H      3.4582053079     1.8197102023    -1.6074197092
 F      2.6232328958     2.1925645498    -1.5389382767
          4
Energy: -5.8284112856309775 Kcal/mole
 H      1.6707431828     0.8336527067    -1.1355356183
 F      1.3135771829     0.0030239892    -0.9826389794
 H      3.4486158684     1.7836115507    -1.7616080469
 F      2.6502222722     2.1607453210    -1.5141675797
          4
Energy: -5.832512834691272 Kcal/mole
 H      1.6700211695     0.8121903588    -1.1120913906
 F      1.2835516379    -0.0179789205    -1.0636221333
 H      3.3624220520     1.7503196512    -1.9436848870
 F      2.6938925000     2.1288627021    -1.4430229283
          4
Energy: -5.830337037872596 Kcal/mole
 H      1.7157015562     0.7677527109    -1.0795178345
 F      1.3680699245    -0.0786344312    -1.0189368607
 H      3.2652747023     1.8423614251    -2.0516148665
 F      2.6405497373     2.1517021056    -1.4558665458
          4
Energy: -5.830683305721095 Kcal/mole
 H      1.6981078059     0.7965034872    -1.0847818793
 F      1.3472019568    -0.0451771598    -0.9882014800
 H      3.4809545676     1.7633476749    -1.6534497742
 F      2.6879742773     2.1419729414    -1.3913159023
          4
Energy: -5.831853096450857 Kcal/mole
 H      1.6713895869     0.8207809526    -1.0818981947
 F      1.3280865710    -0.0246908589    -0.9912921510
 H      3.4258846945     1.7736278305    -1.7647145413
 F      2.6655621247     2.1606593624    -1.4285521058
          4
Energy: -5.830704749312417 Kcal/mole
 H      1.6424811670     0.8498323271    -1.1299269302
 F      1.3181116733     0.0089278072    -0.9609505418
 H      3.4724900188     1.8036306607    -1.4797884419
 F      2.6364445165     2.1793794595    -1.4527744039
          4
Energy: -5.832350277085368 Kcal/mole
 H      1.7144666513     0.8317215790    -1.0344882539
 F      1.3510464290    -0.0099599662    -1.0541584965
 H      3.2671702582     1.9461685448    -1.9277962079
 F      2.6567277155     2.2195374494    -1.3004858030
          4
Energy: -5.830561772070894 Kcal/mole
 H      1.7513714096     0.8185028219    -0.9884645857
 F      1.3581694152    -0.0095097920    -1.0144704087
 H      3.0412000993     2.0406143516    -2.1244174130
 F      2.6589727479     2.2154453476    -1.3094171832
          4
Energy: -5.830946373300833 Kcal/mole
 H      1.6689084889     0.8549557098    -1.0222851299
 F      1.3544090802    -0.0051283851    -0.9750149311
 H      3.4431977380     1.8823080844    -1.5478687514
 F      2.6434293775     2.2311522426    -1.2657919485
          4
Energy: -5.83140231580353 Kcal/mole
 H      1.7855060913     0.8167403588    -0.8700642419
 F      1.4097777541    -0.0197475782    -0.8723331225
 H      3.2664005269     1.9275591868    -1.8757252811
 F      2.7179643789     2.2032245316    -1.1944651185
          4
Energy: -5.832174243643976 Kcal/mole
 H      1.8745329053     0.7751333421    -0.8502550724
 F      1.4417913161    -0.0328934047    -0.8770224654
 H      2.9781938690     2.0710633089    -2.1013817770
 F      2.7609123113     2.1771622139    -1.2168362739
          4
Energy: -5.8316300652412565 Kcal/mole
 H      1.8509784155     0.7718039121    -0.8717154231
 F      1.4042828853    -0.0290404275    -0.8723840261
 H      3.0362318004     1.9820154432    -2.1529091461
 F      2.7764094619     2.1400767226    -1.2878091609
          4
Energy: -5.832361383059208 Kcal/mole
 H      1.8372194605     0.7826557551    -0.8694724646
 F      1.3745468491    -0.0084703651    -0.9001728973
 H      3.0554267761     1.9889841755    -2.1015074884
 F      2.7920918473     2.1417945776    -1.2365261613
          4
Energy: -5.831467902713655 Kcal/mole
 H      1.8833885779     0.7577826904    -0.8400779932
 F      1.3606677402     0.0066770902    -0.8991737049
 H      2.9562300602     2.0684248712    -2.1081490409
 F      2.8738817793     2.1036445760    -1.1955333863
          4
Energy: -5.830899485385999 Kcal/mole
 H      1.9585247601     0.7108694324    -0.8524835305
 F      1.3655462993     0.0144205037    -0.9174791829
 H      2.6936484736     2.3302933989    -2.0076719139
 F      2.9303743364     2.0807806679    -1.1576170552
          4
Energy: -5.830648981978868 Kcal/mole
 H      2.0265683667     0.6557650580    -0.8395577863
 F      1.3569684989     0.0297682580    -0.8651121094
 H      2.5533494164     2.4686333385    -1.7679746775
 F      3.0056195069     2.0087212347    -1.1161912610
          4
Energy: -5.831718120265521 Kcal/mole
 H      2.0318331074     0.6455507188    -0.8529415976
 F      1.3391404470     0.0447632948    -0.8639119884
 H      2.5805308286     2.4563356052    -1.7870903507
 F      3.0442179289     1.9808720257    -1.1547789894
          4
Energy: -5.832472637463184 Kcal/mole
 H      1.9745708137     0.7012978062    -0.8199911679
 F      1.3015452098     0.0807714259    -0.8735873216
 H      2.7831822896     2.3116842039    -1.9246670285
 F      3.0562765752     1.9811479312    -1.1140781786
          4
Energy: -5.831858352684208 Kcal/mole
 H      2.0409577393     0.6453177346    -0.8271696952
 F      1.3558774747     0.0363635956    -0.8541676160
 H      2.6829350662     2.3870973065    -1.8263156869
 F      3.0751599502     1.9607464925    -1.1154896718
          4
Energy: -5.831283928356868 Kcal/mole
 H      2.0481447040     0.6313616288    -0.8319726688
 F      1.3614728221     0.0240331000    -0.8548371564
 H      2.6910413602     2.3959173947    -1.8047680856
 F      3.0997282414     1.9435689786    -1.1197535284
          4
Energy: -5.832039530309373 Kcal/mole
 H      2.0702149313     0.6130864538    -0.8783352875
 F      1.3434015724     0.0543065116    -0.8584275663
 H      2.5921611801     2.5343476964    -1.5844889922
 F      3.1172277697     1.9321147518    -1.1344783735
          4
Energy: -5.831700786882891 Kcal/mole
 H      2.0755975687     0.5914011398    -0.9105787310
 F      1.3250157753     0.0650803440    -0.8881646414
 H      2.6458046144     2.5745098315    -1.3797921641
 F      3.1745640010     1.8851610301    -1.0863628864
          4
Energy: -5.831814757088125 Kcal/mole
 H      2.0424188371     0.6031121514    -1.0758580921
 F      1.3267758303     0.0644591019    -0.8793969532
 H      2.7146684486     2.5801845306    -0.7326845563
 F      3.1344445622     1.9059609871    -1.1910508158
          4
Energy: -5.832127786494539 Kcal/mole
 H      2.0374816658     0.6179973782    -1.0108099609
 F      1.2904416024     0.1035598414    -0.8759983722
 H      2.6189130481     2.6445671353    -1.0361808558
 F      3.1395241649     1.9025456387    -1.1749510385
          4
Energy: -5.8320250811651135 Kcal/mole
 H      2.0339284730     0.6291794594    -0.9465819512
 F      1.2767892565     0.1137822752    -0.9019170955
 H      2.6249623062     2.6207226489    -1.3233342168
 F      3.1504516515     1.8986442645    -1.1151209732
          4
Energy: -5.831945108998696 Kcal/mole
 H      2.0123763008     0.6510104257    -0.8788771904
 F      1.2767543361     0.1046599859    -0.9142399120
 H      2.7252340360     2.4352372096    -1.7599925507
 F      3.1385710475     1.9055744589    -1.1358940925
          4
Energy: -5.832423738064051 Kcal/mole
 H      2.0334626748     0.6122462697    -0.9396696338
 F      1.2773778455     0.0940342528    -0.9135729586
 H      2.6338596817     2.5280080533    -1.5668158888
 F      3.1459060168     1.8728891690    -1.1801418684
          4
Energy: -5.8322222174221 Kcal/mole
 H      2.0370202463     0.5890641088    -1.0528098741
 F      1.2829130475     0.0915604884    -0.8956428275
 H      2.6837821647     2.5893627730    -0.9015753365
 F      3.1609315098     1.8609000786    -1.1889072098
          4
Energy: -5.831949567060519 Kcal/mole
 H      2.0330489708     0.6179263861    -0.8813024146
 F      1.2893036669     0.0818722958    -0.9007429713
 H      2.7132763246     2.4394834715    -1.6813947140
 F      3.1547701912     1.8722445128    -1.1119984289
          4
Energy: -5.83150271372142 Kcal/mole
 H      2.0355480048     0.5987225437    -0.8910569657
 F      1.2708151981     0.0929181834    -0.8757375804
 H      2.7210907636     2.4843149564    -1.5767875600
 F      3.1905725034     1.8259111547    -1.1443753379
          4
Energy: -5.831020718383229 Kcal/mole
 H      2.0415662946     0.5940681791    -0.8907269209
 F      1.2900583375     0.0688818081    -0.9081644111
 H      2.7334254613     2.4318349943    -1.6858930887
 F      3.1789892582     1.8389078553    -1.1466349773
          4
Energy: -5.8312834778567435 Kcal/mole
 H      2.0521056149     0.5770956358    -0.9492586809
 F      1.2894992509     0.0697821623    -0.9050594365
 H      2.6885680075     2.5549707471    -1.3922488656
 F      3.1899383224     1.8264105920    -1.1499331465
          4
Energy: -5.831478343308618 Kcal/mole
 H      2.0617680971     0.5565428205    -0.9912736292
 F      1.2889866785     0.0708724417    -0.9028306406
 H      2.6721954123     2.5623569024    -1.2729279693
 F      3.1977196108     1.8161737518    -1.1839109906
          4
Energy: -5.831705595537642 Kcal/mole
 H      2.0550212161     0.5911202829    -0.9363796066
 F      1.2883298814     0.0894353778    -0.8991552417
 H      2.6944718658     2.4770409223    -1.6050492004
 F      3.1918532819     1.8271527992    -1.1913510563
          4
Energy: -5.831892408359181 Kcal/mole
 H      2.0529857452     0.5990752171    -0.9639675830
 F      1.2872430330     0.1126182690    -0.8302262788
 H      2.6773923369     2.5966324236    -1.1450131445
 F      3.1894137925     1.8368984845    -1.1840947349
          4
Energy: -5.831455377468558 Kcal/mole
 H      2.0599850938     0.6048800939    -0.9099339216
 F      1.3012912255     0.0962113730    -0.8291332626
 H      2.6534380717     2.5927924944    -1.3572882411
 F      3.1754705000     1.8697902409    -1.1436556466
          4
Energy: -5.831898913106386 Kcal/mole
 H      2.0178413833     0.6677188580    -0.8197186806
 F      1.3035268519     0.0928779217    -0.8339189726
 H      2.8715045141     2.2320959203    -1.9579553669
 F      3.1651365587     1.8778264491    -1.1647578101
          4
Energy: -5.831644505783061 Kcal/mole
 H      2.0383677619     0.6448384359    -0.8789871393
 F      1.3101596791     0.0876844686    -0.8924572870
 H      2.8105751184     2.3292381610    -1.8984444957
 F      3.1758821208     1.8769751688    -1.1892914939
          4
Energy: -5.832216579218709 Kcal/mole
 H      2.0483577293     0.6316258628    -0.8844406852
 F      1.3096297345     0.0883853650    -0.8921679889
 H      2.7964471688     2.3533443633    -1.8412338464
 F      3.1903921348     1.8495222608    -1.1840735517
          4
Energy: -5.832301633985651 Kcal/mole
 H      2.0700442365     0.6055857119    -0.9266459615
 F      1.3033640508     0.1047517893    -0.8791499101
 H      2.6955778731     2.5162117104    -1.5629059325
 F      3.2011903410     1.8455092239    -1.1949341851
          4
Energy: -5.831935361863032 Kcal/mole
 H      2.0836462947     0.5932643344    -0.9886419722
 F      1.3149236693     0.1057492217    -0.8778108386
 H      2.6792914133     2.5708270459    -1.3487871357
 F      3.2133769524     1.8331538906    -1.2416425935
          4
Energy: -5.832261614559911 Kcal/mole
 H      2.0809568786     0.5902676386    -0.9680440297
 F      1.3107126949     0.1006773627    -0.8790819074
 H      2.6815640446     2.5501996177    -1.4498370616
 F      3.2132563945     1.8342481280    -1.2362821284
          4
Energy: -5.831717006966414 Kcal/mole
 H      2.0804438462     0.5697879571    -1.0658207656
 F      1.3249254163     0.0798088166    -0.8926118051
 H      2.7069616058     2.5763067354    -1.1330505087
 F      3.1983867493     1.8211466681    -1.3037068919
          4
Energy: -5.8321261914551314 Kcal/mole
 H      2.0680444890     0.5715748037    -1.1087670557
 F      1.3255831735     0.0797140286    -0.8903336037
 H      2.7853947283     2.5479845069    -0.9243200596
 F      3.1991784062     1.8282969791    -1.3138350534
          4
Energy: -5.832389870214968 Kcal/mole
 H      2.0619839272     0.5809557346    -1.0947137315
 F      1.3087254377     0.0942452936    -0.9033930725
 H      2.7716078318     2.5693815010    -0.9778491078
 F      3.2073214188     1.8256583658    -1.2907685356
          4
Energy: -5.831965107617236 Kcal/mole
 H      2.0775074052     0.5790381678    -1.0753119796
 F      1.3233369711     0.0986663392    -0.8719431948
 H      2.7626657256     2.5646165938    -1.0202725256
 F      3.2140793291     1.8173884167    -1.3009232157
          4
Energy: -5.831962333018623 Kcal/mole
 H      2.0594247585     0.5913956705    -1.1089999937
 F      1.3242962137     0.0980108022    -0.8701561235
 H      2.8280067330     2.5276720090    -0.8520032485
 F      3.1990929510     1.8304230184    -1.3178657431
          4
Energy: -5.8321410712487705 Kcal/mole
 H      2.0721524060     0.5852528885    -1.0731479574
 F      1.3238901776     0.0990560239    -0.8619484157
 H      2.7834960623     2.5773300587    -0.9773707240
 F      3.2121093467     1.8314429593    -1.2949114103
          4
Energy: -5.832394679481865 Kcal/mole
 H      2.0866653557     0.5842377587    -1.0151543919
 F      1.3231202991     0.0991098742    -0.8650248403
 H      2.7001276365     2.5885827905    -1.2721542774
 F      3.2165318490     1.8308460279    -1.2792738240
          4
Energy: -5.831705043349928 Kcal/mole
 H      2.0891950962     0.5832277584    -1.0051769184
 F      1.3229861023     0.0991634524    -0.8655541222
 H      2.6892380733     2.5737301414    -1.3390608089
 F      3.2196077433     1.8283841222    -1.2753715255
          4
Energy: -5.832411903695288 Kcal/mole
 H      2.0727621355     0.5851956591    -1.0711081754
 F      1.3238578328     0.0990590598    -0.8620566214
 H      2.7826341897     2.5752365985    -0.9838281420
 F      3.2146532951     1.8283042081    -1.2942157976
          4
Energy: -5.832133314594955 Kcal/mole
 H      2.0573166181     0.6003094099    -1.0878633350
 F      1.3072668524     0.1212033274    -0.8670201540
 H      2.8254528099     2.5643817735    -0.9207016172
 F      3.2178961211     1.8300224924    -1.3048808641
          4
Energy: -5.832411775642413 Kcal/mole
 H      2.0580065371     0.5971623588    -1.0922763248
 F      1.3072302537     0.1213702712    -0.8667860550
 H      2.8477662739     2.5479390883    -0.9306473799
 F      3.2279566794     1.8085013795    -1.3173981143
          4
Energy: -5.832285569458179 Kcal/mole
 H      2.0363038845     0.6083381274    -1.1352508900
 F      1.3083815293     0.1207774225    -0.8645063537
 H      2.9665038604     2.4606937014    -0.7309600230
 F      3.2216579248     1.8131295457    -1.3279910671
          4
Energy: -5.832541885328396 Kcal/mole
 H      2.0257125180     0.6183302061    -1.1451307559
 F      1.3089433768     0.1202473658    -0.8639822496
 H      3.0179609337     2.4162443100    -0.6682975395
 F      3.2189282459     1.8154874832    -1.3313151671
          4
Energy: -5.832310679001353 Kcal/mole
 H      2.0438539410     0.6024214911    -1.1252324891
 F      1.3079810163     0.1210912864    -0.8650378067
 H      2.9370676001     2.4823746438    -0.7682091373
 F      3.2269917544     1.8114727237    -1.3220354623
          4
Energy: -5.8323132813248435 Kcal/mole
 H      2.0492434838     0.5989512505    -1.1161598143
 F      1.3076951135     0.1212753747    -0.8655190911
 H      2.8942472631     2.5081131352    -0.8275223624
 F      3.2292632743     1.8101073562    -1.3188890328
          4
Energy: -5.832128169561827 Kcal/mole
 H      2.0568627247     0.5965225201    -1.0973701640
 F      1.3072909304     0.1214042132    -0.8665158386
 H      2.8476316872     2.5430139496    -0.9221021394
 F      3.2317361229     1.8082559486    -1.3138717941
          4
Energy: -5.83255659749716 Kcal/mole
 H      2.0698940380     0.5851017749    -1.0769248916
 F      1.3065996493     0.1220100573    -0.8676004131
 H      2.8205479338     2.5546121726    -1.0075116684
 F      3.2414838671     1.7974130466    -1.3080968040
          4
Energy: -5.832564077418908 Kcal/mole
 H      2.0712306795     0.5850213152    -1.0721674364
 F      1.3065287436     0.1220143255    -0.8678527851
 H      2.8121197870     2.5605551146    -1.0358812006
 F      3.2419309608     1.7970977873    -1.3065918659
          4
Energy: -5.832236782850089 Kcal/mole
 H      2.0648341432     0.5868188646    -1.0910063033
 F      1.3068680650     0.1219189697    -0.8668534267
 H      2.8498363567     2.5330708427    -0.9261445735
 F      3.2399301839     1.7985557644    -1.3124131403
          4
Energy: -5.832554364510997 Kcal/mole
 H      2.0670954815     0.5883780413    -1.0798139026
 F      1.3067481063     0.1218362590    -0.8674471577
 H      2.8283881327     2.5538500272    -0.9949955313
 F      3.2410679627     1.7974534767    -1.3087607561
          4
Energy: -5.83254620239768 Kcal/mole
 H      2.0545604529     0.5943676512    -1.1089518177
 F      1.3074130606     0.1215185240    -0.8659014587
 H      2.8967432706     2.5120385826    -0.8502355171
 F      3.2374418805     1.7996714772    -1.3164399404
          4
Energy: -5.832472733686188 Kcal/mole
 H      2.0648719108     0.5868888072    -1.0907333405
 F      1.3068660615     0.1219152594    -0.8668679068
 H      2.8484227638     2.5405406946    -0.9422070479
 F      3.2400051718     1.7981595060    -1.3115610632
          4
Energy: -5.832476748629574 Kcal/mole
 H      2.0635988245     0.5904274738    -1.0876383124
 F      1.3069335958     0.1217275413    -0.8670320909
 H      2.8443398705     2.5472940603    -0.9606850553
 F      3.2402217598     1.7978012556    -1.3105808476
          4
Energy: -5.8324847863004265 Kcal/mole
 H      2.0658019015     0.5888664423    -1.0833369072
 F      1.3068167277     0.1218103504    -0.8672602705
 H      2.8426424354     2.5501224275    -0.9687790300
 F      3.2403118048     1.7976512172    -1.3101514810
          4
Energy: -5.832567666831835 Kcal/mole
 H      2.0707522796     0.5856514737    -1.0725279952
 F      1.3065541216     0.1219808971    -0.8678336583
 H      2.8124206559     2.5605065433    -1.0352674396
 F      3.2419150004     1.7971003639    -1.3066244245
          4
Energy: -5.832504636570036 Kcal/mole
 H      2.0721298301     0.5846917859    -1.0695285791
 F      1.3064810457     0.1220318063    -0.8679927704
 H      2.8029433980     2.5605208394    -1.0509600315
 F      3.2424177470     1.7970996055    -1.3057919687
          4
Energy: -5.832584192416107 Kcal/mole
 H      2.0681433175     0.5868267531    -1.0794612614
 F      1.3066925210     0.1219185512    -0.8674658645
 H      2.8263645089     2.5532225626    -0.9961542544
 F      3.2411753112     1.7974867622    -1.3086992886
          4
Energy: -5.832586106985161 Kcal/mole
 H      2.0681706840     0.5869223616    -1.0791530347
 F      1.3066910692     0.1219134794    -0.8674822153
 H      2.8267715404     2.5534218671    -0.9960963121
 F      3.2411537191     1.7974761896    -1.3087023623
