          4
Energy: -4.995858309465461 Kcal/mole
 H     -4.3512890026     6.4179611261     5.3336168724
 F     -4.8482143711     5.7244700970     5.6698078459
 H     -4.0058294955     4.5350387993     6.4449455052
 F     -3.6391101099     3.7475767367     6.7387301070
          4
Energy: -3.1747633873620487 Kcal/mole
 H      6.7097339547    -6.3266994973     1.6750307625
 F      6.2606605501    -5.7021420534     1.1758814096
 H      4.1677442571    -6.2777970825     2.1015901482
 F      3.5653090666    -6.8605884646     2.4734974568
          4
Energy: -3.4062507319918325 Kcal/mole
 H      1.7218101493     0.7960075297    -3.4208824411
 F      1.3654464914     0.9010737424    -2.5825179414
 H      0.1429391789     2.4649096605    -1.5854243687
 F     -0.3376328767     2.8054058571    -0.8825717245
          4
Energy: -5.16439138912034 Kcal/mole
 H     -6.1649949282     6.4306737562     5.1648749140
 F     -6.8735748838     5.8509571464     5.2171443975
 H     -6.4641095442     4.4505604700     4.3737642018
 F     -5.9330077740     3.7383286907     4.1467271954
          4
Energy: 0.004433697164373029 Kcal/mole
 H      1.2312722025     2.2432865281     5.9436080527
 F      0.5621391368     2.5897302654     5.4209928240
 H      5.5245854867     6.4153957768     4.9501019353
 F      6.3305898085     6.8236772289     5.1067936364
          4
Energy: -4.776667316578994 Kcal/mole
 H     -2.9800540248    -6.9256628816     6.1079059719
 F     -2.0862790720    -7.1204317396     6.1720965135
 H     -0.4937072657    -6.3847174376     6.6601548311
 F      0.3970152749    -6.2529332932     6.8337500353
          4
Energy: -4.191232559783373 Kcal/mole
 H      4.2483906683    -3.4341485769    -1.6506366886
 F      4.8058624312    -4.1132568447    -1.9131746745
 H      2.9596287550    -4.8183335606    -3.0136118372
 F      2.1618618988    -4.4201882102    -2.7992818976
          4
Energy: -4.0321156806409135 Kcal/mole
 H      2.2470832105    -0.6262504933    -2.9117236788
 F      2.6672622946    -1.2265652925    -3.4630499697
 H      1.7635415947     1.3851501140    -1.5599676413
 F      1.6459233947     0.5080625586    -1.3196087862
          4
Energy: -4.94376058696642 Kcal/mole
 H      6.6405817441     1.7227443419     3.4151492813
 F      5.8403735876     1.2830787768     3.5002967833
 H      5.2193888096     1.4993817345     5.3973342071
 F      5.3008457435     1.7238329699     6.2827015946
          4
Energy: -4.782118172157652 Kcal/mole
 H     -5.7444937580     5.7148929243    -5.5546771433
 F     -5.5984828692     5.2692021160    -6.3426679578
 H     -5.2335483548     3.6441223984    -5.1365748236
 F     -5.3810649238     3.5753313394    -4.2341360988
          4
Energy: -4.619004108840812 Kcal/mole
 H      5.9798124460     0.5171855785     0.4336290255
 F      6.4726749972    -0.1158714712    -0.0104591159
 H      6.5393200331    -1.6121780444     1.3079873408
 F      6.2948845610    -2.2727285578     1.8951954123
          4
Energy: -5.141008410001632 Kcal/mole
 H     -2.6449209586    -6.7434854230     1.3213928701
 F     -3.4522294565    -7.1088015492     1.5573719313
 H     -0.7350225594    -5.5487468257     0.4182480844
 F     -1.0820231977    -6.3225671750     0.7670770167
          4
Energy: -0.886365806216844 Kcal/mole
 H      1.9479258984    -1.0677170884     5.6291360942
 F      1.6917097540    -1.9464229508     5.6849777872
 H      4.5647080246     0.4936344484     3.0505113429
 F      4.1408323327    -0.2091795032     3.4594990533
          4
Energy: -4.521809927451926 Kcal/mole
 H     -4.9800056290     2.5369347465     3.5674000871
 F     -5.1674907247     1.9703712542     4.2636357858
 H     -4.9955120103     0.5742888801     5.5859090568
 F     -4.6494905877    -0.1624776823     6.0082042233
          4
Energy: -2.4519599358991115 Kcal/mole
 H     -5.5867192223     0.4753366035    -4.8185067804
 F     -5.7291221046    -0.4296443679    -4.7782592898
 H     -5.1646173232     2.1253338561    -2.1590150251
 F     -5.6777015848     2.2232562901    -2.9127024519
          4
Energy: -5.129509371337804 Kcal/mole
 H     -4.9174609682    -5.8082241067    -3.1456949612
 F     -4.5171873527    -5.0050777592    -2.9569465117
 H     -7.2505878295    -6.0645623103    -3.2295014602
 F     -6.5941910916    -6.7030735354    -3.2778309336
          4
Energy: -4.9294306737513125 Kcal/mole
 H      4.8454675995     3.5090252672     7.0802320955
 F      5.6482708127     3.8830648476     6.8425550181
 H      5.6493449465     4.0907203903     4.8377669034
 F      5.2605666694     3.9633657017     4.0170835086
          4
Energy: -5.562228068655145 Kcal/mole
 H      0.6078511940    -2.1502113800     0.6017456577
 F      0.1627478210    -1.8104843897    -0.1244482279
 H     -1.3359835006    -2.8602539448    -0.3273366048
 F     -1.9726458898    -3.5120950487    -0.2241223738
          4
Energy: -4.923639581151065 Kcal/mole
 H      2.7125143407     3.4761354693     5.1856339186
 F      2.4188116232     4.1564811635     5.7257796861
 H      1.4737090961     2.8632435254     6.2603857629
 F      1.1244850217     2.0153494716     6.2630726369
          4
Energy: -5.479726599957871 Kcal/mole
 H     -3.7525188774    -6.4355534752    -6.8004387660
 F     -3.6837374609    -5.6513616937    -6.3301182726
 H     -3.1502554014    -5.5179618928    -4.6803738938
 F     -2.7603315521    -5.6586464983    -3.8624153169
          4
Energy: -5.064175714889188 Kcal/mole
 H     -4.3215759560    -4.3074377742     0.9111184120
 F     -3.7282655087    -4.0014691808     0.2824253764
 H     -4.8292985686    -4.7845251414     3.2931832927
 F     -5.2845026342    -4.5258337416     2.5403506298
          4
Energy: -5.635929442669294 Kcal/mole
 H     -0.8057773873     4.3451399669     5.1020904458
 F     -1.2168665070     4.7699905332     4.4010934900
 H     -2.8562133211     4.8577670046     5.1407473086
 F     -3.4827521633     4.7970385802     5.8075682273
          4
Energy: -5.232081391497104 Kcal/mole
 H      2.5119004846    -5.1549405990    -1.0171746104
 F      2.7276417867    -5.4971064998    -0.1942121649
 H      0.9598465306    -5.7003648265    -1.9247314249
 F      1.3764426951    -5.0330851357    -2.3959791835
          4
Energy: -5.259020492003117 Kcal/mole
 H      4.8888485176     2.5313167107     3.6005861384
 F      5.5735217844     2.9605517977     4.0340244359
 H      4.6368803660     4.5073483261     4.6977126395
 F      3.8282520122     4.9298975727     4.7896980705
          4
Energy: -5.487272713726043 Kcal/mole
 H      2.3826711104    -1.4147224904     5.3069835801
 F      1.6923830399    -1.3739624227     5.9092542805
 H      1.6342299079     0.3258526879     5.6453538376
 F      2.0278030162     1.0829382759     5.3094809138
          4
Energy: -5.119502627876159 Kcal/mole
 H      0.5110540592    -2.7321934406     5.0806787880
 F     -0.0536636359    -3.0817322419     5.7129805761
 H      0.5127376503    -4.4169779067     6.9084748071
 F      0.7194062903    -5.1594435569     7.4053871047
          4
Energy: -5.075784362656634 Kcal/mole
 H     -3.6065445456     3.7938593562     1.2021405188
 F     -3.4021836805     4.1285446787     0.3732187061
 H     -3.4486130582     1.8539396541     2.0851598005
 F     -3.7453530775     2.5307641469     2.6280621554
          4
Energy: -5.590702390571948 Kcal/mole
 H      4.0585313015    -4.1920093070     4.4077128407
 F      4.4871653736    -4.2145783770     5.2180537993
 H      4.3486003784    -5.6384154385     6.2030694782
 F      4.0651315136    -6.3997155106     6.6284594204
          4
Energy: -5.471231623698031 Kcal/mole
 H      2.7203192616     2.6858946255     4.0169319139
 F      3.1942238101     2.4706511016     3.2619658853
 H      0.9744142242     1.7580481988     5.2976217608
 F      1.5679663332     2.4539581496     5.3631521673
          4
Energy: -4.878878627704097 Kcal/mole
 H      0.5425058905     1.2523603160    -3.6725108314
 F      1.0212856816     0.5472075292    -3.3342528544
 H      2.1290503542    -0.2586745760    -4.7132766259
 F      2.4051419494    -0.7083240350    -5.4632618224
          4
Energy: -5.720984158696126 Kcal/mole
 H      5.0373521159    -0.2188679416     2.1037204273
 F      5.7915029456    -0.7190504780     1.9555213843
 H      5.2247438749    -1.5268994938     0.5726935650
 F      4.6467673982    -1.8739711215    -0.0488959118
          4
Energy: -5.488821368535241 Kcal/mole
 H      2.4653810718     5.7570982907    -0.7296102386
 F      2.8728970172     4.9589134385    -0.9238284045
 H      1.5326787087     3.9229949507    -0.5065381615
 F      0.6495293288     3.8657932960    -0.2664045664
          4
Energy: -5.077721858001439 Kcal/mole
 H     -4.1047191500    -4.9429788416     3.1716082424
 F     -4.9014106782    -4.4917166151     3.1212692714
 H     -2.2719864782    -4.5025055721     2.4297883572
 F     -2.2797210137    -5.1455840102     3.0834544030
          4
Energy: -4.698529513932812 Kcal/mole
 H     -3.9596581074     5.6582729496     3.2812127021
 F     -4.4217427781     6.1792604057     2.6846066113
 H     -2.2538986731     4.5444504325     5.1614178920
 F     -2.9326019053     4.9818676722     4.7267719659
          4
Energy: -5.10541909557719 Kcal/mole
 H     -5.6175493876     0.6320203977    -0.9226744037
 F     -5.3673092731     1.0306837462    -0.1356951030
 H     -6.6003284494    -0.4358132136    -2.6197950674
 F     -5.8711157059     0.1052096929    -2.4916077460
          4
Energy: -5.484773685145967 Kcal/mole
 H      2.2849900336     4.4056397235    -4.7045385578
 F      2.1724522304     4.1337039151    -3.8360483973
 H      2.6991652560     5.2696498608    -2.5777851998
 F      2.8251579170     5.9852277945    -2.0183541763
          4
Energy: -5.827021158265495 Kcal/mole
 H      4.0536204034     4.7396705500    -1.2899053211
 F      4.8509672572     4.4146643905    -0.9744722998
 H      4.7644597307     2.7487673174    -1.3507636983
 F      4.4950331293     1.9324674069    -1.6700641251
          4
Energy: -5.6842729447014335 Kcal/mole
 H      4.0141853903     2.0030790523    -1.5492356885
 F      4.5770688441     2.2885072234    -2.2145040378
 H      4.1210089632     1.1875182543    -3.4498533519
 F      3.8226178739     0.4312306040    -3.8739768573
          4
Energy: -5.60007980361479 Kcal/mole
 H      5.7361992135    -2.9347022787     1.6114441797
 F      4.9290629193    -3.0782248445     2.0223228426
 H      5.0231547662    -2.0536259854     3.3921885247
 F      5.4711395747    -1.5229265431     3.9909845778
          4
Energy: -5.74125683275696 Kcal/mole
 H      4.3523195752     1.5023646700     1.8358980586
 F      5.2568249612     1.3627819266     1.8931314791
 H      2.4530982618     0.6695698222     1.5226818679
 F      2.6807359897     1.5258497018     1.7590181385
          4
Energy: -5.764271629374207 Kcal/mole
 H      0.6971714651    -3.8729536988    -1.5980267832
 F      0.2308670911    -4.0493103185    -2.3676679810
 H      0.9486907076    -2.6020067337     0.1176746435
 F      1.3507878442    -3.3859959584    -0.1364272815
          4
Energy: -5.501596173617088 Kcal/mole
 H     -6.4099319183    -0.0614999741    -6.4442813494
 F     -5.8619375264    -0.7280165736    -6.7546791087
 H     -6.5659525392     2.1397537241    -5.5237477513
 F     -7.1534383699     1.5092811672    -5.8372022994
          4
Energy: -5.7478105668043895 Kcal/mole
 H     -5.3460652148     6.1070283335    -6.7240712187
 F     -4.6677411281     6.5657365507    -6.3113337659
 H     -7.1838047348     5.0268859791    -6.3600169897
 F     -6.7254999801     5.1225699528    -7.1484904065
          4
Energy: -5.750289907131787 Kcal/mole
 H     -2.8817447580     3.8479950691    -0.1305538090
 F     -2.5267192452     3.8901993391     0.7138777660
 H     -4.6200169980     3.1678623785    -1.1164438709
 F     -3.8562246918     3.5599882247    -1.4385426658
          4
Energy: -5.7676228720590075 Kcal/mole
 H     -3.8069049146     4.1682285225     3.2851183378
 F     -3.1383911483     4.7457919574     3.5308800577
 H     -4.4195815439     2.9309130474     1.5705042363
 F     -4.7544447232     3.0106412379     2.4204448617
          4
Energy: -5.772243694190479 Kcal/mole
 H     -5.7318940809     3.7685515478     2.0885196735
 F     -6.0383668306     3.5910260086     2.9343613470
 H     -6.3709252781     4.0419705678     0.0981981726
 F     -5.5396778889     4.1130296714     0.4788126517
          4
Energy: -5.79668393993262 Kcal/mole
 H     -5.3771996948     2.0623429447     1.9620878266
 F     -4.6213722345     1.7748029131     1.5297285079
 H     -6.4099727148     1.6274149210     3.7532992403
 F     -6.6664600783     2.2370058811     3.1180810937
          4
Energy: -5.777230443628014 Kcal/mole
 H     -3.3198381612    -1.2000512874     3.6994002758
 F     -2.5400192250    -1.2509213932     4.1791748677
 H     -4.5007396304    -0.1532662924     2.2253904641
 F     -4.6792518198    -0.9051244836     2.7190823302
          4
Energy: -5.809111386471329 Kcal/mole
 H     -3.3327747846    -2.5812148056     4.3675521675
 F     -2.4427229687    -2.8012107664     4.3502737955
 H     -4.7897513398    -1.7883244517     3.0142272896
 F     -4.8831571188    -1.9964455318     3.9023995570
          4
Energy: -5.83251331582062 Kcal/mole
 H     -3.3406195731    -2.5426189541     4.3309563940
 F     -2.4577351442    -2.7903851585     4.3349555479
 H     -4.7817188286    -1.7333299089     3.0165490776
 F     -4.8855881301    -1.9761549443     3.8946926709
