          4
Energy: -5.226812308895376 Kcal/mole
 H      7.3522377255    -5.2459503435    -0.6053078827
 F      7.2088535420    -4.6198374107    -1.2597638181
 H      7.3052632877    -3.3144245328    -0.1452138626
 F      7.4432211202    -3.1190665048     0.7400498707
          4
Energy: -5.475222455975029 Kcal/mole
 H      4.1645757572     2.4571647251    -0.7634748052
 F      3.8082618088     1.8194533587    -1.3177793996
 H      4.7205001033     2.0164186900    -2.6772013512
 F      5.1566662550     2.2994362488    -3.4325483904
          4
Energy: -5.45343962704402 Kcal/mole
 H      3.6630119809     0.5401710953     1.4789611649
 F      4.1803743360     0.9871424961     2.0900599789
 H      2.1039164487     1.5267660787     0.5510434695
 F      2.2010241737     0.6372610420     0.3504446674
          4
Energy: -5.4532046802756895 Kcal/mole
 H     -2.3364216172    -6.9828301987     2.7659420332
 F     -2.7875779717    -6.5045677167     2.1267144194
 H     -1.2722165395    -5.8733755872     1.6073418915
 F     -0.3583579749    -5.9262778854     1.6616822148
          4
Energy: -5.281319362236502 Kcal/mole
 H      0.6272665707    -3.6370192840    -1.3136432916
 F      1.1940854021    -3.7114823549    -0.5966630523
 H     -0.2427451605    -4.7486242583    -2.8785870443
 F     -0.2402048307    -3.8316921329    -2.8894509368
          4
Energy: -5.576693977349578 Kcal/mole
 H      2.4079707214     5.8100425352     0.4493220293
 F      2.1354484175     6.2974488251    -0.2780401242
 H      1.4888187504     5.4044954061     2.1606958222
 F      2.3289803985     5.1234942068     1.9239349070
          4
Energy: -5.455037397052138 Kcal/mole
 H      4.9107538432    -1.9529380768     5.1108191189
 F      5.6138434490    -2.4205943242     5.4683825964
 H      2.5836020446    -1.5008890429     4.4871131753
 F      3.4474087465    -1.1967267800     4.5341482658
          4
Energy: -4.597091227472845 Kcal/mole
 H      0.7313320650     0.0304232228     1.2264928298
 F     -0.0178979539    -0.3434941586     1.6002964823
 H      1.3613555421    -0.8389816388     2.9206138927
 F      2.1608419105    -0.4386923537     3.1242779173
          4
Energy: -5.6760235615085435 Kcal/mole
 H      6.0251712475    -5.6140921186    -2.2388478085
 F      5.4800863038    -5.7415364056    -2.9651599713
 H      5.9912100768    -6.1478209710    -0.1561499606
 F      6.5814362897    -5.6576371704    -0.6583868163
          4
Energy: -4.987370255452333 Kcal/mole
 H      4.5166798579    -2.9303635576    -6.4693002964
 F      4.7887806620    -3.5321503526    -5.8331377340
 H      6.0333533425    -4.1011559410    -4.6698709744
 F      6.7938620430    -4.3946999795    -4.2499335815
          4
Energy: -5.436049095044382 Kcal/mole
 H     -3.2220332945    -3.9791292937    -1.8141972902
 F     -3.7632864579    -3.3295601353    -1.4592410652
 H     -1.8592277146    -4.6716256692    -3.3751041399
 F     -2.1088089152    -5.1379141432    -2.6259891399
          4
Energy: -5.278660640128464 Kcal/mole
 H     -1.6442596267    -6.1138290550     3.4928161355
 F     -1.9563157284    -6.5980134880     4.2063113523
 H     -0.0478831244    -4.7907935620     2.0181414797
 F     -0.8986998308    -5.1233198316     2.0983051386
          4
Energy: -5.1188362519265524 Kcal/mole
 H     -0.2933614412    -3.1256930069     4.0163295329
 F      0.3276715382    -3.2188689535     3.3481040609
 H     -1.6983703172    -4.6977546779     5.0057409192
 F     -1.7882860192    -3.7866930821     5.0583805923
          4
Energy: -5.635119633313536 Kcal/mole
 H     -6.3390364438    -3.4844004709    -2.9021224693
 F     -6.6340529014    -4.3472090608    -2.9991566223
 H     -5.1739855860    -2.2830934559    -1.5346119818
 F     -5.7293448484    -1.9849678457    -2.2006346617
          4
Energy: -5.728049523127083 Kcal/mole
 H     -4.8642549902    -4.6387425071     3.3790659167
 F     -4.8519731880    -5.3886926022     2.8515121165
 H     -3.7561439013    -6.5106440254     3.4677078986
 F     -3.1187982341    -7.0497656286     3.8472173154
          4
Energy: -5.5416632721322685 Kcal/mole
 H      0.1358890789    -6.4306104863     5.3115109118
 F      0.5412625736    -7.2360684036     5.1447809708
 H      0.4270924950    -5.3689935918     6.8767289262
 F     -0.2405876517    -5.1002863634     6.3084960100
          4
Energy: -5.58695911684174 Kcal/mole
 H      7.1098401896    -2.1892734497    -2.2887256141
 F      6.8676062500    -2.0096161725    -1.4227377497
 H      5.1855483317    -1.7236565473    -1.0238054817
 F      4.2753863955    -1.6264581898    -1.0790026655
          4
Energy: -5.534500151355076 Kcal/mole
 H      4.6274364708     5.8781333522     1.3922357009
 F      5.5336521370     5.7783354438     1.2937342092
 H      6.4206734419     5.4807511874     2.7778633562
 F      6.8289788633     5.4896754916     3.5988968754
          4
Energy: -5.413994199530407 Kcal/mole
 H      5.9975248206    -1.2183063187     1.0422309032
 F      5.1195309582    -0.9542586942     1.0250661244
 H      7.0344857079    -1.7600536711    -0.6805647047
 F      7.4258767957    -1.6248486938     0.1376172008
          4
Energy: -5.637185482745849 Kcal/mole
 H      2.4554366575     4.8626188817    -2.4776968237
 F      2.1907305460     4.1675948890    -1.9412629283
 H      3.3636025914     6.8854929788    -2.4966418931
 F      2.8869165007     6.4340980741    -3.1368777957
          4
Energy: -5.562362944899633 Kcal/mole
 H     -5.7500368867    -0.6968904054    -7.1314825147
 F     -6.5008067196    -1.1576597321    -6.8766781082
 H     -6.6990510180    -0.8910788610    -5.2052745796
 F     -6.8095350418    -0.7418898888    -4.3072629254
          4
Energy: -5.419741581470362 Kcal/mole
 H     -0.9670396549     2.7894750227     2.1090924764
 F     -1.5108439420     2.3779319869     1.4960686376
 H      0.5185315570     1.6240520789     2.8036957749
 F      0.5007424065     2.4743943157     3.1464648319
          4
Energy: -5.750197012919784 Kcal/mole
 H     -2.5392335011     6.5447016674     6.1897115237
 F     -3.4338835418     6.7436968471     6.1598581629
 H     -0.9552479312     5.2106629093     7.0419973506
 F     -0.9760114781     5.9364749914     6.4819485165
          4
Energy: -5.616729455742302 Kcal/mole
 H      3.8934559154     1.4275590027     3.2138683884
 F      3.5133688045     0.6000469721     3.1059488475
 H      3.7183657254     3.3441224746     3.8979089341
 F      4.4720622207     2.9305514285     3.5788641368
          4
Energy: -5.553148790190505 Kcal/mole
 H      4.5744641946    -0.1879225041     6.9024106210
 F      3.6816865334     0.0201050105     6.8787125018
 H      5.9742141493    -0.6067437166     5.5595733918
 F      6.2178154851    -0.5295746780     6.4402505907
          4
Energy: -5.419865084806588 Kcal/mole
 H      2.9885775831    -3.6530581435     3.1013933762
 F      3.5680268435    -3.8813463961     3.7744550586
 H      3.0054104170    -3.4161565824     1.1812737201
 F      2.2987178563    -3.1039760532     1.6752554423
          4
Energy: -5.546779046572169 Kcal/mole
 H      5.1254744049    -1.8224052963    -1.2838324255
 F      5.4652796763    -2.3002460576    -1.9888782285
 H      3.7941826039    -2.1069028920     0.1729144547
 F      4.3422086943    -1.3718628522     0.1894233663
          4
Energy: -5.430043333752337 Kcal/mole
 H      1.1318639287     6.5855214819    -3.3136649358
 F      1.9721011169     6.2877217137    -3.5286201997
 H     -0.9622319386     6.4663820532    -2.8968385473
 F     -0.3301155776     7.1270231729    -2.8270444429
          4
Energy: -5.2361825615418525 Kcal/mole
 H     -2.5900379023     4.9460843681     4.4547871819
 F     -3.1080221483     4.2187395798     4.6634756574
 H     -0.8316354708     5.6800195883     4.5235017396
 F     -1.5314783212     6.2112491185     4.2610056997
          4
Energy: -5.370003937969386 Kcal/mole
 H     -4.1272898995     0.4853245220     5.1921706473
 F     -3.8587192789     0.3673148717     4.3233596528
 H     -3.7032948033    -0.0578346048     7.0684251319
 F     -4.3305934529     0.5287170910     6.7469558297
          4
Energy: -5.4378909595344 Kcal/mole
 H      1.7443695514     4.4297621870    -2.4236324910
 F      2.2349542389     3.9739418120    -3.0500855619
 H      1.6512431269     5.7597335056    -0.8464471143
 F      0.9185867538     5.3354944977    -1.1987607574
          4
Energy: -5.680482395143997 Kcal/mole
 H      1.8494011834    -3.0735843441    -2.0832607113
 F      2.5250378747    -3.5409699755    -1.6758852911
 H      0.9524888400    -3.1643424192    -3.8626347714
 F      0.8256533535    -2.4965522597    -3.2471203018
          4
Energy: -5.634750748509305 Kcal/mole
 H      1.4979304877     2.5449766701     0.4467219881
 F      2.3319633237     2.2564651682     0.6957989675
 H     -0.3969854719     1.8332875981     1.0095575014
 F     -0.3076912946     2.5497054036     0.4441717235
          4
Energy: -5.55520787394147 Kcal/mole
 H      6.5788742838     5.4740276296     5.1148208458
 F      6.8269446557     4.9840067701     4.3804982683
 H      6.9862205895     7.4892746854     6.0838922605
 F      6.3800695421     6.8454070837     6.3265945870
          4
Energy: -5.6681463713724725 Kcal/mole
 H      0.3132261585    -5.4868745881    -4.0255844901
 F      1.2165113693    -5.3529018938    -4.1093469226
 H     -1.5423673164    -5.9118336568    -2.6806157115
 F     -1.3334772833    -5.8120708540    -3.5679157381
          4
Energy: -5.7234907988269015 Kcal/mole
 H     -5.4888242442    -1.6687696562    -2.9263934068
 F     -5.8042265480    -0.9318584923    -3.3717834868
 H     -4.4877409701    -3.4283031770    -3.4552747053
 F     -4.8639969714    -3.2579570962    -2.6365545858
          4
Energy: -5.6574455408119775 Kcal/mole
 H     -1.6485328082    -1.5250370435    -2.0682190355
 F     -2.0261017279    -2.2983531240    -2.3849412331
 H     -1.5180281717     0.2561615916    -3.0729677571
 F     -1.2772198431     0.1780552653    -2.1916053171
          4
Energy: -5.795776322602649 Kcal/mole
 H      6.2205425374    -0.0202460994    -3.4207747381
 F      5.7696953366     0.4875551382    -2.8045250285
 H      6.3912153168    -2.0480550453    -3.8402168649
 F      6.7703749266    -1.3753452770    -4.3347758179
          4
Energy: -5.777794075232862 Kcal/mole
 H      1.5164738331    -0.9279387389     3.0242511831
 F      1.6830396711    -1.7584418093     3.3755480258
 H      0.2590291358     0.7418254649     3.3008432100
 F      0.8893311645     0.5688775623     2.6576501010
          4
Energy: -5.697330506516266 Kcal/mole
 H     -0.2836152915    -0.8620630390     4.2205014646
 F      0.4938251903    -0.6905266834     3.7654733601
 H     -1.5078921763    -2.2727014089     5.5065952429
 F     -1.6529006288    -1.4923669994     5.0473134579
          4
Energy: -5.600836687654748 Kcal/mole
 H     -3.9020308055    -6.1453989650     2.1152062460
 F     -3.9188405547    -7.0524153632     2.2491005536
 H     -3.6640365481    -4.5872369460     3.5540221187
 F     -3.8925514374    -4.4984318632     2.6704025158
          4
Energy: -5.742283202139845 Kcal/mole
 H     -5.5502604677     0.1139960131     6.2021615381
 F     -5.7895353296    -0.7706852712     6.1709274936
 H     -3.8950267170     1.4423933473     5.9695747384
 F     -4.7677862563     1.5729859246     6.2188243431
          4
Energy: -5.726652370793829 Kcal/mole
 H     -1.5834532697    -0.3642835513     2.0919939408
 F     -2.4045191922     0.0329903473     2.1864036884
 H     -0.2573511736    -2.0679048469     2.3881710621
 F     -0.1391675779    -1.2163415765     2.0691700679
          4
Energy: -5.577854293274527 Kcal/mole
 H     -6.6034371820    -1.8377537256     0.3331882453
 F     -7.2451503417    -1.1885004790     0.4201562995
 H     -5.9674101982    -3.7351653058    -0.5066384996
 F     -5.5692411402    -3.2473287339     0.1599692414
          4
Energy: -5.620355944418975 Kcal/mole
 H     -3.1153579956    -3.9555071854    -2.7125333439
 F     -3.9176615126    -3.5360037772    -2.8581868956
 H     -1.2447567066    -3.8870816677    -1.8011424120
 F     -1.5336912194    -4.4471986756    -2.4672315838
          4
Energy: -5.658924802017168 Kcal/mole
 H     -5.5687773494    -2.8514893675    -5.9377673855
 F     -5.1326731851    -2.3454381404    -5.3095840417
 H     -4.9113603915    -4.4461028447    -7.1110035918
 F     -5.7567797493    -4.0955841243    -7.0536299384
          4
Energy: -5.778032029152655 Kcal/mole
 H     -4.4205723977    -5.0173902670    -6.2670353341
 F     -4.4082206140    -4.9382542508    -7.1805307771
 H     -5.6754397795    -5.9881905239    -4.8286312709
 F     -4.8897383759    -5.5424983301    -4.6707681253
          4
Energy: -5.797767278308754 Kcal/mole
 H     -3.0269980950    -5.1501696296    -3.4559594323
 F     -2.1224017279    -5.2992140266    -3.4364612158
 H     -4.4541517348    -3.8721812464    -4.4956703187
 F     -4.5813682355    -4.5046565224    -3.8439955631
          4
Energy: -5.792857389685025 Kcal/mole
 H     -3.7841734622    -5.5481826037     0.2687755724
 F     -4.5141768451    -5.1047139587    -0.0648703803
 H     -1.9707750427    -5.2167813780     1.3725671278
 F     -2.2773018640    -6.0008034903     1.0089194478
          4
Energy: -5.790009426577967 Kcal/mole
 H     -5.5145653889    -5.6428949557    -0.5816697525
 F     -5.7989110073    -5.7968298754     0.2764331608
 H     -4.5564813579    -4.0630416556    -1.7732458190
 F     -4.8266750884    -4.9104426485    -1.9963957804
          4
Energy: -5.790003529950525 Kcal/mole
 H     -5.2303083217    -6.0592292688    -0.9130752330
 F     -5.5692268291    -6.9111616926    -0.9283850510
 H     -4.3883690338    -4.4911550682     0.3663276229
 F     -4.5901340037    -4.4962857383    -0.5281854139
          4
Energy: -5.804595128153608 Kcal/mole
 H     -4.0479301104    -5.7956638301    -1.2286090088
 F     -4.0676637325    -6.6099712801    -1.6498013178
 H     -5.3381794374    -4.6156072920    -0.0793588988
 F     -4.4657497438    -4.4169640119    -0.2800982246
          4
Energy: -5.819305921290891 Kcal/mole
 H     -5.4708439970    -5.3766586375    -2.3496533409
 F     -5.4274842467    -6.2724089617    -2.5410698729
 H     -5.2334158876    -3.9737795196    -0.7663181511
 F     -5.4956969584    -3.8421117196    -1.6350881036
          4
Energy: -5.827142591793688 Kcal/mole
 H     -5.5539385386    -5.4913126434    -1.7915674552
 F     -5.7225873280    -6.3520308737    -2.0591692374
 H     -4.8510050235    -3.6662408251    -2.5857896205
 F     -5.1516662068    -3.8373389456    -1.7365444933
          4
Energy: -5.8324806759536045 Kcal/mole
 H     -5.5610556989    -5.4892883290    -1.7937098500
 F     -5.7222097790    -6.3521382589    -2.0590555883
 H     -4.9019973134    -3.6509886309    -2.5989067146
 F     -5.1489611836    -3.8381480393    -1.7358486617
