          4
Energy: -5.83239146719751 Kcal/mole
 H      2.0731715283     0.5745212524    -1.0706435227
 F      1.3061762414     0.1173324634    -0.8618717787
 H      2.8953199258     2.5123854172    -0.9218081178
 F      3.2759888267     1.7571089929    -1.2761211304
          4
Energy: -5.831927272754626 Kcal/mole
 H      2.0704080066     0.5635656800    -1.1155278869
 F      1.3281829380     0.0966685794    -0.8472033725
 H      3.1051939787     2.3374855241    -0.6454252894
 F      3.3175689749     1.7123786288    -1.2818427863
          4
Energy: -5.832108712636057 Kcal/mole
 H      2.0358263971     0.5927982579    -1.1485150127
 F      1.3130081951     0.1058206059    -0.8634262314
 H      3.2621658024     2.1753264657    -0.5049630516
 F      3.3143878893     1.7036812181    -1.2896366233
          4
Energy: -5.8310160950079535 Kcal/mole
 H      2.0315983681     0.6092438297    -1.1286707231
 F      1.2946947800     0.1371042430    -0.8549074814
 H      3.2444114785     2.2249279493    -0.5345418507
 F      3.3182242522     1.7029614361    -1.2848695348
          4
Energy: -5.832102259175997 Kcal/mole
 H      1.9789087796     0.6626586063    -1.1650109089
 F      1.2974898409     0.1342707126    -0.8529797185
 H      3.3682811124     2.0882576021    -0.4614152623
 F      3.2588763390     1.7765509642    -1.3168441415
          4
Energy: -5.831735232688345 Kcal/mole
 H      2.0130995565     0.6275047155    -1.1495232977
 F      1.3014366069     0.1333528715    -0.8491255593
 H      3.1809359690     2.2870224045    -0.5779486085
 F      3.2613564238     1.7615055286    -1.3251122877
          4
Energy: -5.832494827919618 Kcal/mole
 H      2.0428224922     0.5907176341    -1.1391237776
 F      1.3275363297     0.0950988418    -0.8499582223
 H      3.1235446310     2.3286038672    -0.6180446440
 F      3.2644009017     1.7592997280    -1.3229852856
          4
Energy: -5.832162188887821 Kcal/mole
 H      2.0457613095     0.5787315523    -1.1338745991
 F      1.3309948278     0.0885550973    -0.8343334173
 H      3.0996425166     2.3423272387    -0.6465194804
 F      3.2643511703     1.7523034556    -1.3288918090
          4
Energy: -5.830859700313226 Kcal/mole
 H      2.0551245553     0.5817067676    -1.1002619492
 F      1.3848758542     0.0432937178    -0.7812524409
 H      3.2766021791     2.2146934503    -0.5196420700
 F      3.2662931172     1.7588117408    -1.3152265031
          4
Energy: -5.832136409590646 Kcal/mole
 H      2.0564727472     0.5517922493    -1.1298776288
 F      1.4052814658     0.0010199306    -0.7929966884
 H      3.3110548589     2.1070715219    -0.4739109919
 F      3.2598107940     1.7408147936    -1.3130290139
          4
Energy: -5.832507588456281 Kcal/mole
 H      2.0313201898     0.5910453603    -1.1144946577
 F      1.3983567745     0.0202534304    -0.7762005732
 H      3.4812756530     1.9673571053    -0.4409594411
 F      3.2770433353     1.7321034447    -1.3034174839
          4
Energy: -5.831954906986766 Kcal/mole
 H      1.9936995421     0.6214202075    -1.1104806937
 F      1.3948951579     0.0047002196    -0.7911395501
 H      3.5882115748     1.8388114187    -0.4433918156
 F      3.2426867175     1.7599015915    -1.2891310260
          4
Energy: -5.831929622268376 Kcal/mole
 H      1.9705362343     0.6506391387    -1.1082385580
 F      1.3894374971     0.0122195670    -0.7989915564
 H      3.7120374919     1.6654173374    -0.4998893590
 F      3.2539469338     1.7532909025    -1.2893957093
          4
Energy: -5.832362870454574 Kcal/mole
 H      1.9566175039     0.6670233479    -1.1014077004
 F      1.3669391829     0.0298924624    -0.8060558552
 H      3.8102219308     1.5232870428    -0.5640189319
 F      3.2784823691     1.7249201053    -1.2833840316
          4
Energy: -5.832282763831074 Kcal/mole
 H      1.9610481269     0.6503454617    -1.1166589660
 F      1.3643599462     0.0268838518    -0.8065818208
 H      3.7976830092     1.5243783626    -0.5692241686
 F      3.2858268856     1.7001088144    -1.3095018982
          4
Energy: -5.832321300717524 Kcal/mole
 H      1.9393152449     0.6806722320    -1.0942896063
 F      1.3655128253     0.0252750867    -0.8077684636
 H      3.8846799806     1.3917613251    -0.6889448849
 F      3.2812118973     1.7071438418    -1.3031509909
          4
Energy: -5.832367207386596 Kcal/mole
 H      1.9550650922     0.6579245052    -1.1091822467
 F      1.3808638486    -0.0043700847    -0.8398352438
 H      3.8821426290     1.3835320051    -0.6813670883
 F      3.2829302045     1.6997063728    -1.2993211640
          4
Energy: -5.831379872177138 Kcal/mole
 H      1.9717933982     0.6400360253    -1.1284911009
 F      1.3726955409     0.0048389083    -0.8483208314
 H      3.8404238697     1.4829850770    -0.5905170390
 F      3.3015194908     1.6910772560    -1.3026748273
          4
Energy: -5.831087370849787 Kcal/mole
 H      1.9775025835     0.6454070725    -1.1537504303
 F      1.3675841038     0.0313751040    -0.8506775187
 H      3.7582227434     1.5671276629    -0.5178604677
 F      3.3058800706     1.6866136862    -1.3065290905
          4
Energy: -5.831057248024763 Kcal/mole
 H      1.9418044092     0.6831217143    -1.1323417270
 F      1.3282753211     0.0684495255    -0.8379794361
 H      3.8849679973     1.3526960997    -0.6686414920
 F      3.3341850749     1.6487842369    -1.3393567724
          4
Energy: -5.832157831806057 Kcal/mole
 H      1.9432942935     0.6994179575    -1.1064750132
 F      1.3410539548     0.0598206549    -0.8435855593
 H      3.9531223242     1.2454922166    -0.7976723888
 F      3.3305696454     1.6544711551    -1.3325119815
          4
Energy: -5.832013070850337 Kcal/mole
 H      1.9467304798     0.6926668870    -1.1170200459
 F      1.3476380878     0.0487347276    -0.8575423399
 H      3.9534729620     1.2314666835    -0.8091284977
 F      3.3305510449     1.6552151773    -1.3319042614
          4
Energy: -5.831244008411204 Kcal/mole
 H      1.9545999576     0.6826393518    -1.0974395634
 F      1.3569748260     0.0318811738    -0.8519869288
 H      3.9870543114     1.2202020135    -0.8623950054
 F      3.3287696319     1.6558127420    -1.3290785963
          4
Energy: -5.831347736076339 Kcal/mole
 H      1.9564908407     0.6691409336    -1.1443519491
 F      1.3651814530     0.0126708716    -0.8988132236
 H      3.9428713017     1.2856813345    -0.7549460540
 F      3.3286315507     1.6715051895    -1.3159616341
          4
Energy: -5.832323957480696 Kcal/mole
 H      1.9936174832     0.6319184848    -1.1700554816
 F      1.4129452431    -0.0346923960    -0.9264601549
 H      3.9260131617     1.3362562063    -0.7065706049
 F      3.3295258361     1.6688223095    -1.3185278399
          4
Energy: -5.8321724025538515 Kcal/mole
 H      1.9858468109     0.6417548899    -1.1611499930
 F      1.4133574593    -0.0352141946    -0.9269325705
 H      3.9761170833     1.2455175265    -0.8276171032
 F      3.3324322507     1.6599345426    -1.3324114900
          4
Energy: -5.832476582860181 Kcal/mole
 H      1.9778253493     0.6489295101    -1.1587383899
 F      1.4073684208    -0.0334009997    -0.9353710509
 H      3.9835013795     1.2205477776    -0.8592856170
 F      3.3320405308     1.6612591301    -1.3307315486
          4
Energy: -5.832168527914746 Kcal/mole
 H      1.9805778848     0.6846717712    -1.0230412830
 F      1.4164576085    -0.0302813880    -0.9158065217
 H      3.9929093475     1.0712286105    -1.4951848961
 F      3.3306594302     1.6755711585    -1.3026124896
          4
Energy: -5.832413466031198 Kcal/mole
 H      1.9710763311     0.6764891713    -1.0757145428
 F      1.4136411420    -0.0360598979    -0.9259519510
 H      4.0327718848     1.0894950926    -1.2638644030
 F      3.3285448147     1.6746021638    -1.3148835072
          4
Energy: -5.832277254627229 Kcal/mole
 H      2.0114710880     0.6514115696    -0.9908367801
 F      1.4248809099    -0.0523941187    -0.9526462567
 H      3.9335379376     1.1176400248    -1.7320418878
 F      3.3478269978     1.6627381003    -1.2840465942
          4
Energy: -5.832479362526783 Kcal/mole
 H      1.9993162414     0.6603398368    -1.0064821909
 F      1.4255256965    -0.0528677426    -0.9518163038
 H      3.9504557655     1.1028930417    -1.6750139447
 F      3.3384410167     1.6679987430    -1.2916309852
          4
Energy: -5.832214068578537 Kcal/mole
 H      1.9839478173     0.6618776169    -1.0854187447
 F      1.4263409559    -0.0529493183    -0.9476289020
 H      4.0391709762     1.0834349055    -1.2937932973
 F      3.3337348798     1.6690309522    -1.3118538597
          4
Energy: -5.832389231153684 Kcal/mole
 H      1.9910150986     0.6333748133    -1.1724483006
 F      1.4259660529    -0.0514373105    -0.9430121852
 H      3.9763184682     1.2428566958    -0.8288176154
 F      3.3370690601     1.6605739946    -1.3365197452
          4
Energy: -5.832321897990596 Kcal/mole
 H      1.9987722178     0.6194236440    -1.1929195686
 F      1.4252078390    -0.0549244353    -0.9538221590
 H      3.9638239978     1.2756079227    -0.7903080014
 F      3.3389909308     1.6544831444    -1.3443172115
          4
Energy: -5.832381078767128 Kcal/mole
 H      2.0131787313     0.5998748126    -1.2114414397
 F      1.4244436068    -0.0538874149    -0.9528396165
 H      3.8900281493     1.3808024769    -0.6656088191
 F      3.3429056300     1.6489028163    -1.3509322150
          4
Energy: -5.83192063114268 Kcal/mole
 H      2.0294927089     0.5756641725    -1.2328394040
 F      1.4235781880    -0.0526030964    -0.9517045039
 H      3.8036751369     1.4958355384    -0.5767485153
 F      3.3410678709     1.6439197871    -1.3545367723
          4
Energy: -5.831832425724599 Kcal/mole
 H      2.0353280234     0.5551084981    -1.2522821708
 F      1.4225439471    -0.0603844494    -0.9580830758
 H      3.7274642605     1.5835042260    -0.5256324568
 F      3.3451106817     1.6392691658    -1.3572483611
          4
Energy: -5.832037145884215 Kcal/mole
 H      2.0212046043     0.5727108127    -1.2534281915
 F      1.3979233078    -0.0323223435    -0.9595841762
 H      3.7162148293     1.5792898006    -0.5214607292
 F      3.3451798991     1.6375162129    -1.3580202104
          4
Energy: -5.832066662662555 Kcal/mole
 H      2.0211332777     0.5781687930    -1.2420562366
 F      1.3979270915    -0.0326118768    -0.9601874321
 H      3.7838232807     1.5244160844    -0.5695160085
 F      3.3451004034     1.6352530187    -1.3670913409
          4
Energy: -5.8321408222845434 Kcal/mole
 H      2.0221166795     0.5694734779    -1.2580999483
 F      1.3978749244    -0.0321506104    -0.9593363503
 H      3.7584207338     1.5275581286    -0.5677150303
 F      3.3524539608     1.6182428594    -1.3849397600
          4
Energy: -5.832345934796081 Kcal/mole
 H      2.0111137977     0.5785314322    -1.2446641475
 F      1.3767103003    -0.0142232751    -0.9495996470
 H      3.7584071504     1.5574323515    -0.5649730853
 F      3.3524546813     1.6166581009    -1.3850852138
          4
Energy: -5.832444286219925 Kcal/mole
 H      2.0094479474     0.5810245663    -1.2471647893
 F      1.3896040270    -0.0266045644    -0.9514126061
 H      3.7882059641     1.4952450118    -0.5875958547
 F      3.3508739231     1.6199569956    -1.3838851282
          4
Energy: -5.832063927347576 Kcal/mole
 H      1.9947647819     0.6002200984    -1.2372869557
 F      1.3903829350    -0.0276228430    -0.9519366023
 H      3.8462250352     1.3999622409    -0.6468110721
 F      3.3429350230     1.6287872036    -1.3784033767
          4
Energy: -5.832094221123782 Kcal/mole
 H      2.0032158008     0.5977385900    -1.2356964677
 F      1.3909719944    -0.0242563962    -0.9543270333
 H      3.8337578905     1.4431637888    -0.6264747432
 F      3.3435963762     1.6264954613    -1.3794821720
          4
Energy: -5.832235420278607 Kcal/mole
 H      1.9938028272     0.6002635917    -1.2339658520
 F      1.3899517594    -0.0313871802    -0.9559906908
 H      3.8575334635     1.3792332302    -0.6580185810
 F      3.3455004295     1.6226430153    -1.3787562924
          4
Energy: -5.832457089120965 Kcal/mole
 H      1.9955048789     0.6027743350    -1.2243714293
 F      1.3898614695    -0.0315203693    -0.9564996528
 H      3.8915504616     1.3525559725    -0.6805882773
 F      3.3512184260     1.6158846237    -1.3731114269
          4
Energy: -5.832089443348764 Kcal/mole
 H      1.9807512457     0.6308358421    -1.1934555367
 F      1.3831653271    -0.0226502504    -0.9552623444
 H      3.9727512174     1.2157340821    -0.8158300879
 F      3.3566229129     1.6203359556    -1.3613319085
          4
Energy: -5.832263379175743 Kcal/mole
 H      1.9820000872     0.6366253096    -1.1970071567
 F      1.3846681689    -0.0159489788    -0.9556974437
 H      3.9616806608     1.2335969174    -0.7910941056
 F      3.3572101803     1.6193883734    -1.3626440952
          4
Energy: -5.832365574039898 Kcal/mole
 H      1.9831343322     0.6343075920    -1.2004272331
 F      1.3846079998    -0.0158260292    -0.9555160166
 H      3.9545132691     1.2325282746    -0.7843257848
 F      3.3575903939     1.6194450625    -1.3630031390
          4
Energy: -5.832176292057454 Kcal/mole
 H      1.9868491300     0.6351099312    -1.1889023582
 F      1.3844109384    -0.0158685914    -0.9561273845
 H      3.9733578729     1.2037477191    -0.7890606169
 F      3.3672806080     1.6084775047    -1.3456153309
          4
Energy: -5.832020075271828 Kcal/mole
 H      1.9709710003     0.6572768191    -1.1656697166
 F      1.3856958509    -0.0196107829    -0.9652572075
 H      4.0078244590     1.1189264126    -0.9304438720
 F      3.3595860508     1.6245924732    -1.3366184664
          4
Energy: -5.832191471447572 Kcal/mole
 H      1.9790096244     0.6500298027    -1.1663616905
 F      1.3852694205    -0.0192263454    -0.9652204999
 H      4.0189766952     1.1229791116    -0.9168641211
 F      3.3638985208     1.6183112863    -1.3247950247
          4
Energy: -5.831712757615321 Kcal/mole
 H      1.9682842372     0.6741381901    -1.1066498762
 F      1.3858383775    -0.0205052396    -0.9683880737
 H      4.0455272347     1.0018188218    -1.2281432591
 F      3.3716033298     1.6189556194    -1.3046791557
          4
Energy: -5.832241536849381 Kcal/mole
 H      1.9811734319     0.6730870949    -1.0401618082
 F      1.3851546355    -0.0204494815    -0.9719151121
 H      4.0074799298     1.0052365811    -1.5385792372
 F      3.3736216515     1.6187743152    -1.2882112444
          4
Energy: -5.832288313624133 Kcal/mole
 H      1.9806659304     0.6727796526    -1.0473202073
 F      1.3851815573    -0.0204331724    -0.9715353755
 H      4.0118009323     0.9926216268    -1.4917381289
 F      3.3733924323     1.6194435094    -1.2906960570
          4
Energy: -5.83230616521837 Kcal/mole
 H      1.9817925109     0.6707264579    -1.0566110214
 F      1.3851217948    -0.0203242551    -0.9710425193
 H      4.0206600351     0.9970914690    -1.4766916353
 F      3.3729224773     1.6192063946    -1.2914942387
          4
Energy: -5.832513965384635 Kcal/mole
 H      1.9811773430     0.6714700400    -1.0548710744
 F      1.3851544280    -0.0203637004    -0.9711348195
 H      4.0216456099     0.9953886336    -1.4672604888
 F      3.3728701949     1.6192967260    -1.2919945392
          4
Energy: -5.832349809887319 Kcal/mole
 H      1.9890081583     0.6673523694    -1.0281816425
 F      1.3847390214    -0.0201452675    -0.9725506322
 H      3.9916944230     1.0207306242    -1.6059408944
 F      3.3744590361     1.6179523920    -1.2846378642
          4
Energy: -5.832461533377057 Kcal/mole
 H      1.9734956045     0.6734459051    -1.0865271695
 F      1.3855619265    -0.0204685155    -0.9694555368
 H      4.0422377876     0.9938150562    -1.3068812917
 F      3.3717778274     1.6193802007    -1.3005022850
          4
Energy: -5.83236058378526 Kcal/mole
 H      1.9753680269     0.6661113909    -1.0881643310
 F      1.3875280006    -0.0277444377    -0.9702779768
 H      4.0490379924     1.0011826126    -1.2953086356
 F      3.3714170923     1.6189893688    -1.3011161877
          4
Energy: -5.832388448612107 Kcal/mole
 H      1.9729572813     0.6763735506    -1.0764900779
 F      1.3879127765    -0.0178360589    -0.9473198585
 H      4.0445773812     0.9966953107    -1.2792412697
 F      3.3716537174     1.6192274098    -1.3019685243
          4
Energy: -5.832480836580999 Kcal/mole
 H      1.9783582732     0.6768235148    -1.0456001543
 F      1.3876262664    -0.0178599284    -0.9489584975
 H      4.0232795065     0.9893006366    -1.4365962904
 F      3.3727835204     1.6196196802    -1.2936212041
          4
Energy: -5.832499539373941 Kcal/mole
 H      1.9769900792     0.6735087698    -1.0734843625
 F      1.3876988459    -0.0176840889    -0.9474793047
 H      4.0469332883     0.9989657681    -1.2894839923
 F      3.3715287420     1.6191069673    -1.3014251716
          4
Energy: -5.832518116566803 Kcal/mole
 H      1.9759359908     0.6711933614    -1.0899545182
 F      1.3877547629    -0.0175612618    -0.9466056010
 H      4.0505941757     1.0079892904    -1.2235860452
 F      3.3713345403     1.6186282903    -1.3049209054
          4
Energy: -5.8325512985648515 Kcal/mole
 H      1.9744757025     0.6726200481    -1.0890732685
 F      1.3878322278    -0.0176369442    -0.9466523493
 H      4.0499538359     1.0069211785    -1.2263156671
 F      3.3713685089     1.6186849512    -1.3047761053
          4
Energy: -5.832359035283503 Kcal/mole
 H      1.9772609493     0.6671143938    -1.1033862016
 F      1.3876844769    -0.0173448820    -0.9458930812
 H      4.0578451542     1.0293089927    -1.1564982450
 F      3.3709498927     1.6174973294    -1.3084797582
          4
Energy: -5.832511554351925 Kcal/mole
 H      1.9747671198     0.6714332886    -1.0935451901
 F      1.3878167688    -0.0175739894    -0.9464151242
 H      4.0541822856     1.0160624677    -1.1977627450
 F      3.3711441994     1.6182000269    -1.3062907718
          4
Energy: -5.832484350839195 Kcal/mole
 H      1.9742814647     0.6688402885    -1.1069569825
 F      1.3878425317    -0.0174364367    -0.9457036596
 H      4.0508914852     1.0317156918    -1.1204465584
 F      3.3713187688     1.6173696595    -1.3103922168
          4
Energy: -5.832378087965083 Kcal/mole
 H      1.9738962032     0.6703922637    -1.1016528336
 F      1.3878629689    -0.0175187654    -0.9459850324
 H      4.0534474984     1.0207227171    -1.1708928702
 F      3.3711831782     1.6179528115    -1.3077161566
          4
Energy: -5.832410795420287 Kcal/mole
 H      1.9747084836     0.6807737707    -1.0757566243
 F      1.3813821016    -0.0059791997    -0.9445195789
 H      4.0446242423     0.9969121246    -1.2750902485
 F      3.3716512315     1.6192159084    -1.3021887264
          4
Energy: -5.832265191372471 Kcal/mole
 H      1.9745048928     0.6736989854    -1.1090506071
 F      1.3813929017    -0.0056038987    -0.9427534100
 H      4.0469579504     1.0371148815    -1.0920804275
 F      3.3715274337     1.6170832450    -1.3118969745
          4
Energy: -5.832438617012315 Kcal/mole
 H      1.9719695909     0.6759536736    -1.1088462666
 F      1.3815273936    -0.0057235047    -0.9427642498
 H      4.0489517197     1.0327924631    -1.1104758585
 F      3.3714216688     1.6173125393    -1.3109211394
          4
Energy: -5.832384600000694 Kcal/mole
 H      1.9692841101     0.6817476231    -1.0693561097
 F      1.3798176194    -0.0089386368    -0.9414078913
 H      4.0442570625     0.9959675111    -1.3045706439
 F      3.3716707095     1.6192660179    -1.3006248596
          4
Energy: -5.832445237499087 Kcal/mole
 H      1.9704665954     0.6826217852    -1.0587145314
 F      1.3797548913    -0.0089850091    -0.9419724024
 H      4.0279038297     0.9949938851    -1.3842228922
 F      3.3655313727     1.6237811387    -1.3018923512
          4
Energy: -5.832462580398726 Kcal/mole
 H      1.9694126114     0.6840440274    -1.0555630471
 F      1.3798108027    -0.0090604558    -0.9421395814
 H      4.0292824027     0.9953509254    -1.3753412787
 F      3.3654582426     1.6237621985    -1.3023635003
          4
Energy: -5.832507698168058 Kcal/mole
 H      1.9714723153     0.6807995332    -1.0642626823
 F      1.3797015402    -0.0088883429    -0.9416780858
 H      4.0370135783     1.0001766804    -1.3330954338
 F      3.3650481216     1.6235062034    -1.3046045447
          4
Energy: -5.832511139263602 Kcal/mole
 H      1.9761288113     0.6813829177    -1.0346370552
 F      1.3794545238    -0.0089192901    -0.9432496569
 H      4.0111066189     1.0019949628    -1.4938518054
 F      3.3664224259     1.6234097477    -1.2960767907
          4
Energy: -5.832479339726035 Kcal/mole
 H      1.9833117012     0.6773539506    -1.0157201150
 F      1.3790734881    -0.0087055627    -0.9442531568
 H      3.9834887427     1.0155034885    -1.5960172819
 F      3.3678874904     1.6226931516    -1.2906571483
          4
Energy: -5.832563080465491 Kcal/mole
 H      1.9817131439     0.6790824709    -1.0125263655
 F      1.3791582879    -0.0087972567    -0.9444225779
 H      3.9781420829     1.0116625129    -1.5990677481
 F      3.3681711184     1.6228969065    -1.2904953281
          4
Energy: -5.832534845935129 Kcal/mole
 H      1.9778651235     0.6804922997    -1.0298753417
 F      1.3793624165    -0.0088720448    -0.9435022548
 H      4.0055072611     1.0028912483    -1.5137774978
 F      3.3667194589     1.6233622018    -1.2950197788
          4
Energy: -5.832533499091596 Kcal/mole
 H      1.9730980571     0.6815487904    -1.0514838514
 F      1.3796152983    -0.0089280892    -0.9423559733
 H      4.0279292748     0.9972497034    -1.3996851280
 F      3.3655300229     1.6236614727    -1.3010721153
          4
Energy: -5.832500091052566 Kcal/mole
 H      1.9761726934     0.6807849394    -1.0387670798
 F      1.3794521960    -0.0088875687    -0.9430305686
 H      4.0143838095     0.9975362502    -1.4671851285
 F      3.3662485785     1.6236462721    -1.2974913963
          4
Energy: -5.832557791168426 Kcal/mole
 H      1.9737228560     0.6800823269    -1.0498847132
 F      1.3797556604    -0.0100845570    -0.9414336044
 H      4.0264125794     0.9981462198    -1.4143958567
 F      3.3656104801     1.6236139146    -1.3002917452
          4
Energy: -5.8325817107489115 Kcal/mole
 H      1.9701871331     0.6816014933    -1.0590975155
 F      1.3799432224    -0.0101651452    -0.9409448865
 H      4.0314115683     0.9966989068    -1.3670380853
 F      3.3653452953     1.6236906912    -1.3028039655
          4
Energy: -5.8325679452001395 Kcal/mole
 H      1.9717807804     0.6804623103    -1.0577812126
 F      1.3798586831    -0.0101047142    -0.9410147134
 H      4.0325583847     0.9990455298    -1.3771566545
 F      3.3652844593     1.6235662083    -1.3022671988
          4
Energy: -5.832589813915433 Kcal/mole
 H      1.9713161899     0.6817287540    -1.0525131492
 F      1.3798833285    -0.0101718961    -0.9412941720
 H      4.0270584640     0.9963373553    -1.3997305605
 F      3.3655762174     1.6237098707    -1.3010697053
          4
Energy: -5.832579238762833 Kcal/mole
 H      1.9707590014     0.6820071166    -1.0537355062
 F      1.3799128861    -0.0101866626    -0.9412293287
 H      4.0272500222     0.9953956290    -1.3921459869
 F      3.3655660557     1.6237598271    -1.3014720494
          4
Energy: -5.832583653345978 Kcal/mole
 H      1.9707322838     0.6812258121    -1.0585705255
 F      1.3799143034    -0.0101452162    -0.9409728421
 H      4.0321066532     0.9979277460    -1.3716356508
 F      3.3653084226     1.6236255041    -1.3025600753
          4
Energy: -5.832585567492572 Kcal/mole
 H      1.9704135016     0.6815365137    -1.0583443383
 F      1.3799312141    -0.0101616982    -0.9409848408
 H      4.0316053169     0.9968417577    -1.3664198028
 F      3.3653350173     1.6236831133    -1.3028367640
          4
Energy: -5.832594876714381 Kcal/mole
 H      1.9707881300     0.6812669397    -1.0580469077
 F      1.3799113409    -0.0101473979    -0.9410006189
 H      4.0320081788     0.9976648359    -1.3701881875
 F      3.3653136464     1.6236394509    -1.3026368599
