          4
Energy: -5.82730548550245 Kcal/mole
 H      1.2897931196     1.3083012049    -1.3995298633
 F      0.9299542712     0.5099122510    -1.6715226600
 H      2.2773131521     2.9276164997    -2.2753070573
 F      2.0779616238     2.8130045876    -1.3876066136
          4
Energy: -5.830694829555512 Kcal/mole
 H      1.3378046836     1.2363175647    -1.4028600085
 F      1.0480167470     0.3882005019    -1.5967914382
 H      2.4746881848     2.7455506186    -2.3067338614
 F      2.0647746693     2.7718766626    -1.4868760388
          4
Energy: -5.828549238403184 Kcal/mole
 H      1.2003543618     1.2168355005    -1.3772356056
 F      0.9258825622     0.3646455054    -1.5755445652
 H      2.2234351632     2.7951247698    -2.3373499305
 F      1.8847512786     2.7769171930    -1.4853812042
          4
Energy: -5.827167513710208 Kcal/mole
 H      1.1685068212     1.2240477742    -1.2979231520
 F      1.0938253588     0.3128083313    -1.3683103442
 H      2.2405904679     2.8264151302    -2.1133031482
 F      1.6095030997     2.8500279204    -1.4484270921
          4
Energy: -5.829638091578033 Kcal/mole
 H      1.0951393385     1.3008057820    -1.4421555030
 F      1.0211242582     0.3868686915    -1.4307641640
 H      2.5903577469     2.7750112971    -1.3077011200
 F      1.6845126648     2.8942079690    -1.3859688688
          4
Energy: -5.83030685203795 Kcal/mole
 H      1.0494263524     1.3041227906    -1.0793850705
 F      0.8892090993     0.4029324633    -1.0239285497
 H      2.6549442814     2.6086214359    -1.5212274753
 F      1.7918462152     2.8288094473    -1.3033560274
          4
Energy: -5.829655562441076 Kcal/mole
 H      1.2283958856     1.1916557048    -0.7157720120
 F      1.1739486225     0.2790123003    -0.6450153033
 H      2.3370115441     2.6358643076    -1.7518684916
 F      1.6478055381     2.7733040006    -1.1628061755
          4
Energy: -5.825838530934163 Kcal/mole
 H      1.5269711206     1.0223659266    -1.1931065288
 F      1.5223526255     0.2093196204    -0.7690506675
 H      2.1743056220     3.0378686005    -0.9663238957
 F      1.7095604061     2.6431367843    -1.6512236529
          4
Energy: -5.828870135595139 Kcal/mole
 H      1.5591471034     1.0322007238    -1.0814217856
 F      1.3585927306     0.2091493621    -0.7303471502
 H      0.7251659044     2.9490708840    -1.3041882869
 F      1.5520809044     2.6597131647    -1.5750622300
          4
Energy: -5.82938240799956 Kcal/mole
 H      1.4896813738     1.0805547030    -1.0362458478
 F      1.4920402951     0.3050407092    -0.5468978317
 H      1.3939843753     3.1521822735    -0.7580951607
 F      1.4709790434     2.6956207860    -1.5496205420
          4
Energy: -5.829963660645944 Kcal/mole
 H      1.3679090508     1.0840494107    -1.1234005861
 F      1.4257560811     0.2522141416    -0.7418343322
 H      0.8973980837     3.0752403368    -0.5975308447
 F      1.1629589520     2.7526631102    -1.4138092029
          4
Energy: -5.829194995575904 Kcal/mole
 H      1.3839114251     0.9452323646    -1.1072090213
 F      1.2806624320     0.1000151546    -0.7668613853
 H      0.7024435601     2.9198265384    -0.7422644614
 F      1.2871202346     2.6327624385    -1.3877382323
          4
Energy: -5.827690903144685 Kcal/mole
 H      0.9220179213     1.0519536799    -1.0218281647
 F      0.8491685969     0.1874826794    -0.7247223499
 H      2.2997708551     2.6535317656    -1.0675484400
 F      1.4368769088     2.6354662785    -1.3773494657
          4
Energy: -5.827752038140488 Kcal/mole
 H      0.9933197538     1.0671067966    -0.8532267258
 F      0.8872889941     0.1582907788    -0.7923997270
 H      2.2280329617     2.5171380395    -1.7636909066
 F      1.4960518764     2.6504426518    -1.2276661206
          4
Energy: -5.824911042033364 Kcal/mole
 H      1.1401127902     1.1127458276    -0.8497647629
 F      1.1676557104     0.2014227950    -0.7516795057
 H      2.3171579136     2.5665473678    -1.7680962487
 F      1.5433661723     2.7061963550    -1.2962557022
          4
Energy: -5.82545542803939 Kcal/mole
 H      1.1488068547     0.9963606604    -1.0579351292
 F      1.1288100683     0.1233155700    -0.7781469975
 H      2.3972614075     2.6725201205    -0.9439507686
 F      1.5663435211     2.6181238951    -1.3280152381
          4
Energy: -5.831408561958995 Kcal/mole
 H      1.5423105547     0.8593968724    -1.1439695761
 F      1.1998831013     0.0118876845    -1.0707533506
 H      0.8873865754     2.8431318393    -1.4941721201
 F      1.7380393351     2.5393629292    -1.3360477016
          4
Energy: -5.830490280042909 Kcal/mole
 H      1.3625938030     0.8480949181    -1.4128491222
 F      1.1840938664    -0.0386090406    -1.2619091928
 H      2.9217109873     2.2337256465    -1.0865715718
 F      2.1123597428     2.3737033072    -1.4943041037
          4
Energy: -5.824529485492178 Kcal/mole
 H      1.4996272658     0.7731841650    -1.3374931993
 F      1.2480564276    -0.0566626658    -1.0392393632
 H      2.9571654153     2.2799086111    -0.9237338415
 F      2.2744068323     2.2811881629    -1.5358842153
          4
Energy: -5.831600003047015 Kcal/mole
 H      1.5476932475     0.7977261202    -1.2950991355
 F      1.2281816880     0.0101909382    -0.9507305824
 H      2.9373315864     2.2877277527    -0.7901770585
 F      2.4036888874     2.2509129160    -1.5349986060
          4
Energy: -5.8230609130329185 Kcal/mole
 H      1.3765381675     0.8952414755    -1.0782370589
 F      1.0247427251     0.0559446717    -0.9654991247
 H      3.0964525316     1.8849007455    -1.9097559129
 F      2.3635659320     2.2433505467    -1.4910914027
          4
Energy: -5.82898722967559 Kcal/mole
 H      1.4578813182     0.8808073282    -1.4750230009
 F      0.9583124287     0.1527867575    -1.2274225705
 H      2.2467359869     2.6544457334    -0.6397321942
 F      2.3006481938     2.3522268431    -1.5038191206
          4
Energy: -5.831631277363385 Kcal/mole
 H      1.2646367691     1.0485385518    -1.4731730151
 F      0.8721230713     0.2420730492    -1.2822924499
 H      2.7229277536     2.3471137956    -0.6908694390
 F      2.2120059523     2.4614211097    -1.4437185281
          4
Energy: -5.82892478202524 Kcal/mole
 H      1.5421416495     0.9665833232    -1.4305422462
 F      1.0932837846     0.1826560620    -1.2728283715
 H      1.9421410307     2.7914402629    -0.4733740646
 F      2.2284331046     2.5249051824    -1.3027623327
          4
Energy: -5.829475162531708 Kcal/mole
 H      1.5211457236     0.9664393848    -1.5035368547
 F      1.1357993459     0.1513009139    -1.3363649596
 H      2.8430048831     2.3016339711    -0.5484924012
 F      2.4381863181     2.3938490103    -1.3661153682
          4
Energy: -5.832222797509246 Kcal/mole
 H      1.5947570355     0.8812397529    -1.4431375044
 F      1.3386168518     0.0095064414    -1.5670820078
 H      3.1187286957     2.2177832873    -2.0210068951
 F      2.3988375570     2.3753046546    -1.4752663274
          4
Energy: -5.831075064209301 Kcal/mole
 H      1.7547188955     0.8247524775    -1.4882180003
 F      1.5376091844    -0.0570549034    -1.6153719085
 H      2.9384100592     2.3480137347    -2.3313333731
 F      2.3975010796     2.3891258039    -1.5919983519
          4
Energy: -5.827491918678504 Kcal/mole
 H      1.8036649760     0.7618325050    -1.3924119492
 F      1.7161923049    -0.1462571397    -1.4852059632
 H      3.1799260693     2.2793645985    -1.9210668540
 F      2.3770950849     2.3698952105    -1.4872977694
          4
Energy: -5.824544704263985 Kcal/mole
 H      1.6942054455     0.8204016705    -1.5216473487
 F      1.5581694361    -0.0859772521    -1.4923138734
 H      3.2986657390     2.1278918981    -1.8149774146
 F      2.4294985439     2.3525489033    -1.6279837863
          4
Energy: -5.829923109203094 Kcal/mole
 H      1.7618209193     0.7872889168    -1.3886328334
 F      1.5267950684    -0.0990810865    -1.3888910228
 H      3.2799878380     2.0930841073    -2.1034104151
 F      2.5388179660     2.2897398438    -1.6005359355
          4
Energy: -5.829332856357269 Kcal/mole
 H      1.9666462435     0.7062856420    -1.2865588463
 F      1.5901518115    -0.1269097004    -1.3567476209
 H      2.3965782194     2.3433781681    -2.5379082583
 F      2.5471506205     2.2724935607    -1.6361364887
          4
Energy: -5.829587873992466 Kcal/mole
 H      1.8436745870     0.7377404143    -1.6146900460
 F      1.5920147262    -0.1105109657    -1.3738043659
 H      3.2919429980     2.1869476300    -1.1149841625
 F      2.6235271442     2.2539456726    -1.7391800521
          4
Energy: -5.830892926932563 Kcal/mole
 H      2.0293691396     0.7483545839    -1.2580080025
 F      1.6703243711    -0.0930723516    -1.3210680246
 H      2.7295115248     2.2604192987    -2.5247522072
 F      2.6870543643     2.2703634736    -1.6087895972
          4
Energy: -5.830298555231536 Kcal/mole
 H      1.9944788176     0.7303527100    -1.3472114710
 F      1.7727893482    -0.1594254173    -1.3410744342
 H      3.5869864576     1.9976448607    -1.9541089873
 F      2.7990167956     2.2234748677    -1.5430206517
          4
Energy: -5.830853330689536 Kcal/mole
 H      2.1679817706     0.7126370490    -1.1993862008
 F      1.9084813322    -0.1668790087    -1.1992226633
 H      3.0772563989     2.0950086965    -2.4804740668
 F      2.7847874709     2.2397649392    -1.6235046645
          4
Energy: -5.828997678158203 Kcal/mole
 H      2.0484617204     0.7694703952    -1.1838255822
 F      1.8550552153    -0.1254355563    -1.1325785165
 H      3.1386622524     2.1076409678    -2.3868610773
 F      2.6182428480     2.3005774852    -1.6569102955
          4
Energy: -5.831731409461895 Kcal/mole
 H      2.0465056956     0.7420714996    -1.2564668603
 F      1.9154095668    -0.1068201858    -0.9353972236
 H      3.5604538231     2.2032271585    -1.4212268565
 F      2.6867408677     2.2505916941    -1.6955829614
          4
Energy: -5.8317587246099265 Kcal/mole
 H      2.0060874048     0.7641141389    -1.2287783730
 F      1.9396757106    -0.0942632229    -0.9130778954
 H      3.4465777825     2.2798618374    -1.5017514861
 F      2.5514121925     2.3072837533    -1.6987682496
          4
Energy: -5.8298048760240135 Kcal/mole
 H      1.9164051556     0.7768434709    -1.2697774584
 F      1.7680721802    -0.0202421663    -0.8413608208
 H      3.3397840190     2.3408386383    -1.2701485276
 F      2.5784292337     2.2719932267    -1.7765951686
          4
Energy: -5.827593522630821 Kcal/mole
 H      1.8309860828     0.8006749460    -1.2978586477
 F      1.6377107279     9.075909E-40    -0.8930058164
 H      3.1752239924     2.4295922635    -1.1274725618
 F      2.4948846659     2.3184201588    -1.7321775841
          4
Energy: -5.832297496187493 Kcal/mole
 H      1.7449032310     0.8423986442    -1.2477756345
 F      1.3319753285     0.1732337953    -0.7759727600
 H      2.7708737594     2.6473139180    -0.8943839279
 F      2.5906949590     2.2466034378    -1.6992787725
          4
Energy: -5.832012521391562 Kcal/mole
 H      1.7157743077     0.9448011424    -1.0491414051
 F      1.4653358773     0.1239684699    -0.7260263850
 H      3.4692383777     1.9703784056    -1.5860353173
 F      2.6063919301     2.2798617624    -1.6106332785
          4
Energy: -5.829861225083789 Kcal/mole
 H      1.7732340223     0.8050274487    -1.1256276966
 F      1.4827229337     0.0932434641    -0.6257718507
 H      3.0897912481     2.4758320607    -1.0091234451
 F      2.5397257455     2.2190872999    -1.6964363802
          4
Energy: -5.830378461506712 Kcal/mole
 H      1.6980397993     0.8383173780    -1.1637166098
 F      1.4160065428     0.0704322757    -0.7493511770
 H      3.4462664252     2.0276375333    -1.4013493014
 F      2.6040188636     2.1566755720    -1.7402552317
          4
Energy: -5.824268692052783 Kcal/mole
 H      1.6944627285     0.8663081037    -1.1114903640
 F      1.4444223836     0.0908815290    -0.6906787040
 H      3.4649721920     1.8346749851    -1.7643841132
 F      2.5932251597     2.1119437239    -1.8281662284
          4
Energy: -5.8307089135061005 Kcal/mole
 H      1.7813572690     0.8871886148    -0.9909934305
 F      1.4952744420     0.0676150232    -0.6954519881
 H      3.3246761013     1.6903704313    -2.1628467816
 F      2.6566661471     2.1463531494    -1.7307224223
          4
Energy: -5.830320158388872 Kcal/mole
 H      1.8241026686     0.8396558306    -0.9777390804
 F      1.4933628147     0.0278344693    -0.7085807136
 H      3.3673414973     1.6243430155    -2.1888407197
 F      2.7393575220     2.0871802392    -1.7068585301
          4
Energy: -5.831280224158149 Kcal/mole
 H      1.8938352893     0.8702755274    -0.8443369908
 F      1.5022478370     0.0720401840    -0.6199074836
 H      3.0561702477     1.6617599633    -2.3959479307
 F      2.7564196488     2.0957169177    -1.6458013182
          4
Energy: -5.829830315967911 Kcal/mole
 H      1.8525740090     0.8607155359    -0.9359801231
 F      1.4570365238     0.0598038497    -0.7286649795
 H      3.2035432529     1.6424605509    -2.3455986167
 F      2.7957586113     2.0897910207    -1.6567618168
          4
Energy: -5.829974975518837 Kcal/mole
 H      1.9598614995     0.7840864399    -0.9589273107
 F      1.4974884734     0.0050206851    -0.8169528965
 H      2.5498180601     2.0318014575    -2.5681247420
 F      2.7283804725     2.1292706779    -1.6739747457
          4
Energy: -5.832237992490661 Kcal/mole
 H      1.7331050233     0.8165515055    -1.1666693502
 F      1.5101194549    -0.0280546800    -0.8877305976
 H      3.4226241794     1.8839991620    -1.8173731132
 F      2.5646209212     2.1933201623    -1.7222945787
          4
Energy: -5.831919318391556 Kcal/mole
 H      1.6788956164     0.8145816179    -1.2114059307
 F      1.4221796163    -0.0165235275    -0.9211471969
 H      3.3736927533     1.8275545872    -1.9643870465
 F      2.5329002910     2.1564669351    -1.8038451427
          4
Energy: -5.8299141117881845 Kcal/mole
 H      1.6707874980     0.8020149684    -1.2081542222
 F      1.4226108247    -0.0340357410    -0.9247524751
 H      3.3567254981     1.8912286374    -1.8830486049
 F      2.4936014747     2.1770666528    -1.7638741567
          4
Energy: -5.830146340502949 Kcal/mole
 H      1.6410099416     0.7901914640    -1.2372702824
 F      1.4038123278    -0.0211634858    -0.8818417559
 H      3.3624747851     1.9776309029    -1.5697212605
 F      2.4888596211     2.1752688641    -1.7662531450
          4
Energy: -5.831416104212735 Kcal/mole
 H      1.6777745779     0.7135335190    -1.3275186474
 F      1.4584744142    -0.0721330205    -0.9085621736
 H      3.2498056989     2.1313371848    -1.4160756547
 F      2.4507408367     2.1358172356    -1.8659248242
          4
Energy: -5.832265941194237 Kcal/mole
 H      1.6494321398     0.7256752765    -1.2969242453
 F      1.4299308292    -0.0823263804    -0.9229703748
 H      3.2662240631     2.0808295093    -1.4024578462
 F      2.4383580602     2.1489661981    -1.7908960946
          4
Energy: -5.830827725316681 Kcal/mole
 H      1.7139668482     0.6756750912    -1.3756213478
 F      1.4429766605    -0.0829834565    -0.9375682391
 H      2.8488907119     2.4217752591    -1.0275629913
 F      2.4127994844     2.1760586121    -1.7958967539
          4
Energy: -5.831310296803565 Kcal/mole
 H      1.7006806185     0.6794078659    -1.3425336980
 F      1.4451145191    -0.0752869267    -0.8886496393
 H      2.8061561527     2.4498505748    -0.9994982555
 F      2.3781213243     2.1855134297    -1.7661801057
          4
Energy: -5.831661404599743 Kcal/mole
 H      1.7477990868     0.6997909695    -1.3054221137
 F      1.5388270190    -0.0658684362    -0.8460906981
 H      2.8486179779     2.4761678055    -1.0175409812
 F      2.3650026442     2.2236010445    -1.7545723511
          4
Energy: -5.831610897828568 Kcal/mole
 H      1.7499717605     0.7160072577    -1.2410045051
 F      1.5772787417    -0.0592387389    -0.7826817300
 H      2.8970721800     2.4799904942    -1.0439561096
 F      2.3480295458     2.2344972366    -1.7361802397
          4
Energy: -5.831466839581992 Kcal/mole
 H      1.8366537761     0.6812461250    -1.2647458731
 F      1.5860078286    -0.0636950082    -0.7923812713
 H      2.7591072716     2.5585634520    -0.9302935812
 F      2.4443270443     2.2087604481    -1.7173388575
          4
Energy: -5.830552378008349 Kcal/mole
 H      1.8812684833     0.6458165256    -1.2917267916
 F      1.5360711654    -0.0667004154    -0.8290742001
 H      2.3576172458     2.6687609327    -1.0157130695
 F      2.4499829860     2.1650412816    -1.7763865100
          4
Energy: -5.831962961520276 Kcal/mole
 H      2.0309748318     0.6205295640    -1.2071838339
 F      1.5639150393    -0.0750882702    -0.8345446265
 H      1.9279321416     2.7277733666    -1.4073501896
 F      2.5627431749     2.1508607114    -1.7315040734
          4
Energy: -5.83243593933156 Kcal/mole
 H      1.9793508862     0.6218605602    -1.2516663553
 F      1.5517704512    -0.0680885764    -0.8250117404
 H      2.1145566781     2.7258798063    -1.1850068131
 F      2.5467976591     2.1461810861    -1.7489271337
          4
Energy: -5.832352007844634 Kcal/mole
 H      2.0146989734     0.6054086561    -1.2390007447
 F      1.5444741387    -0.0762287530    -0.8451123754
 H      2.0057118529     2.7095973358    -1.3168792958
 F      2.5752930679     2.1302060451    -1.7420521687
          4
Energy: -5.832217859936463 Kcal/mole
 H      1.9606768123     0.6081405875    -1.3183341551
 F      1.5239902038    -0.0863187460    -0.9085536773
 H      2.1472648350     2.6934321425    -1.1513776536
 F      2.5554034408     2.1375696648    -1.7558019949
          4
Energy: -5.832391804212534 Kcal/mole
 H      1.9623196329     0.6062145638    -1.3198363863
 F      1.5239030560    -0.0862165749    -0.9084739874
 H      2.1859587636     2.6935198588    -1.1301945302
 F      2.5623160424     2.1369363725    -1.7542610503
          4
Energy: -5.832454858889889 Kcal/mole
 H      1.9404263861     0.6140271843    -1.3205927034
 F      1.5251034633    -0.0841453473    -0.8952093636
 H      2.2736461056     2.6810266954    -1.0753291418
 F      2.5576644315     2.1375991059    -1.7571715324
          4
Energy: -5.832171403659345 Kcal/mole
 H      1.9266943811     0.6129060112    -1.3455524250
 F      1.5272060795    -0.0876829177    -0.9091200139
 H      2.3564487006     2.6435396874    -1.0197279040
 F      2.5532719452     2.1395877051    -1.7601210496
          4
Energy: -5.831968207617763 Kcal/mole
 H      2.0021136378     0.6066337459    -1.2733948439
 F      1.5232052622    -0.0873501886    -0.9129478068
 H      1.9857909136     2.7148318496    -1.3419301193
 F      2.5729344843     2.1358058206    -1.7430289666
          4
Energy: -5.8316232913857675 Kcal/mole
 H      2.0400740777     0.6058349517    -1.2178905692
 F      1.5211915486    -0.0873078144    -0.9158921803
 H      1.8761545530     2.6698870831    -1.5773259406
 F      2.6109412012     2.1363663831    -1.7051275226
          4
Energy: -5.832077831122319 Kcal/mole
 H      2.0419659854     0.6162881220    -1.1940367918
 F      1.5135526591    -0.0725577093    -0.8988084438
 H      1.8914168228     2.6818981068    -1.5885299770
 F      2.6235589179     2.1384767206    -1.6862548445
          4
Energy: -5.831528954434589 Kcal/mole
 H      2.0101323856     0.6086490679    -1.2471962469
 F      1.5071437624    -0.0769344419    -0.9038790525
 H      2.0236953786     2.7148319242    -1.3499117508
 F      2.6237017281     2.1234285546    -1.7120214511
          4
Energy: -5.832240508016525 Kcal/mole
 H      2.0325062282     0.6051939041    -1.2193403786
 F      1.5059568817    -0.0767511535    -0.9053567419
 H      1.9266702280     2.6863764985    -1.5222649002
 F      2.6288486881     2.1249380492    -1.7028785148
          4
Energy: -5.8325892966338415 Kcal/mole
 H      2.0285846036     0.6080750353    -1.2196195225
 F      1.5061649149    -0.0769039908    -0.9053419340
 H      1.9294108472     2.6916282934    -1.5281381868
 F      2.6287033046     2.1246594536    -1.7025669505
          4
Energy: -5.832280051535804 Kcal/mole
 H      2.0088197287     0.6065049556    -1.2533336008
 F      1.5072133958    -0.0768207017    -0.9035534800
 H      2.0288961921     2.7151188039    -1.3578838764
 F      2.6263783571     2.1191066037    -1.7165947903
          4
Energy: -5.832565199124133 Kcal/mole
 H      2.0032896607     0.5981297259    -1.2791624054
 F      1.5128767294    -0.0852090555    -0.9138785889
 H      2.0829847543     2.7056813753    -1.2677269716
 F      2.6228477317     2.1188430716    -1.7205600215
          4
Energy: -5.832485571305085 Kcal/mole
 H      2.0208196101     0.6007945480    -1.2488662268
 F      1.5119468061    -0.0853504182    -0.9154857312
 H      1.9854793462     2.7036083349    -1.4189264332
 F      2.6280201683     2.1189530416    -1.7125392395
          4
Energy: -5.832558805485235 Kcal/mole
 H      2.0211301421     0.6000751778    -1.2498702355
 F      1.5119303331    -0.0853122572    -0.9154324709
 H      1.9832372000     2.7024326757    -1.4215156239
 F      2.6281391089     2.1190154076    -1.7124018889
          4
Energy: -5.832595994931694 Kcal/mole
 H      2.0223636430     0.5989209790    -1.2503526865
 F      1.5118648987    -0.0852510296    -0.9154068780
 H      1.9818096447     2.7001961104    -1.4202105978
 F      2.6282148374     2.1191340523    -1.7124711175
