          4
Energy: -5.81447671945557 Kcal/mole
 H      3.0262626483    -0.6566714828    -3.2150245226
 F      3.4376076215    -0.7802603759    -2.4048331264
 H      2.5376385224    -1.6393066940    -5.0140961131
 F      2.3521745617    -0.7735949429    -4.7752755040
          4
Energy: -5.665703820629176 Kcal/mole
 H      0.5892762400    -1.9231516053    -5.6125456025
 F      0.6551082508    -2.1401932726    -4.7240367049
 H      2.0431533005    -1.6899180448    -6.9079024858
 F      1.1795612164    -1.4944499389    -7.1464185899
          4
Energy: -5.792717353220269 Kcal/mole
 H      2.5629263564    -1.9676578973    -7.1654582461
 F      2.9440777941    -2.8009122724    -7.2015099838
 H      0.6148215318    -0.9904022616    -7.1294841090
 F      1.4545107272    -0.6282552552    -7.0612155147
          4
Energy: -5.780417132615355 Kcal/mole
 H      3.7028160773    -5.6656692506    -7.3160776777
 F      3.2681240744    -6.4239842032    -7.0387866835
 H      4.1137870930    -3.8055904605    -6.4421431706
 F      4.3392111192    -4.1004387637    -7.2806761076
          4
Energy: -5.7768141074024015 Kcal/mole
 H     -0.1575823671    -5.6637250897    -3.1634821759
 F     -0.9637604359    -6.0837748646    -3.0429661688
 H      1.2848873345    -5.6808114498    -4.6089933121
 F      1.3563232293    -5.1917864395    -3.8365682657
          4
Energy: -5.7813133893306485 Kcal/mole
 H      1.7867014028    -6.1955203820    -2.8997239645
 F      1.5802084239    -6.8599689539    -2.3024319548
 H      2.2875770124    -4.0656941041    -3.0016604785
 F      2.2806265924    -4.7168650534    -3.6472742071
          4
Energy: -5.675597589876759 Kcal/mole
 H     -2.4182301572    -2.2152098046    -4.3843992423
 F     -1.8986362838    -2.5942344289    -3.7307544297
 H     -3.1212074685    -0.3037944977    -5.2660222132
 F     -3.1552848156    -1.1900049640    -5.4991718300
          4
Energy: -5.748756304462631 Kcal/mole
 H     -1.6780170519    -2.6290001212    -5.8298068941
 F     -0.8115340038    -2.7849529055    -6.0862729863
 H     -3.3681059351    -1.9281600678    -6.7782337066
 F     -3.2906519680    -2.0682004424    -5.8753059263
          4
Energy: -5.772083431041949 Kcal/mole
 H     -2.7292101484    -6.7269010067    -6.8282370099
 F     -2.0558737722    -7.1933672794    -7.2404461085
 H     -4.0811903012    -7.2132513886    -5.3954087884
 F     -4.0706964053    -6.4138191497    -5.8445045171
          4
Energy: -5.738244730502458 Kcal/mole
 H     -5.0776390955    -6.4036068574    -2.9684852952
 F     -5.4836028623    -7.2044429730    -2.7820880420
 H     -3.1759927867    -5.2838191829    -3.3680792953
 F     -4.0536476417    -5.0556129671    -3.2319437795
          4
Energy: -5.796399355174913 Kcal/mole
 H     -5.2796351296    -4.8203925067    -4.2031397493
 F     -4.4437080005    -5.1584173632    -4.3700350194
 H     -6.5761662851    -4.6515125181    -2.6107852700
 F     -6.7489166689    -4.3447060460    -3.4574942481
          4
Energy: -5.799134897714282 Kcal/mole
 H     -4.2143108940    -4.5624139104    -5.0300342410
 F     -4.1509480704    -3.6687556637    -5.2256079884
 H     -5.6765392732    -5.9408631525    -4.3602320633
 F     -4.7930670487    -6.1210126530    -4.5273008698
          4
Energy: -5.8141870056721245 Kcal/mole
 H     -4.7830077382    -6.8143439658    -6.8692420564
 F     -4.0448871907    -6.9806468321    -7.3873254609
 H     -6.1954210450    -5.2376686601    -6.3623317443
 F     -6.1226844965    -6.1030034845    -6.0677234687
          4
Energy: -5.792478885887817 Kcal/mole
 H     -6.9667060635    -6.7564329510    -3.4606685749
 F     -6.4985563441    -6.7113500999    -4.2478739971
 H     -6.6355192130    -7.4665714421    -1.5314729801
 F     -7.3700243168    -7.0241302836    -1.8564915546
          4
Energy: -5.7541404626479675 Kcal/mole
 H     -4.2228042501    -1.4819733330    -5.9213429221
 F     -4.5471548396    -2.3225188438    -5.7505537559
 H     -4.2561360502     0.5828864918    -5.3136531309
 F     -3.7127203969     0.1570535150    -5.9171883027
          4
Energy: -5.8202569061832605 Kcal/mole
 H     -4.1672444405    -0.7625337686    -0.6742120237
 F     -3.8677107429    -0.4653338936    -1.4883623774
 H     -4.8591267800    -0.0403014352     1.2398971403
 F     -4.7405821129    -0.8995029620     0.9422246719
          4
Energy: -5.749730159965452 Kcal/mole
 H     -5.3735383012     5.5148901924     4.5934230245
 F     -5.7606164745     4.6957681952     4.7351927023
 H     -5.3194657090     7.3517160667     3.3717891706
 F     -4.9163821722     7.0865428109     4.1515941505
          4
Energy: -5.773612733810239 Kcal/mole
 H     -5.5371928139     3.3184295956     3.3798282329
 F     -4.6489802084     3.5089186468     3.2546032805
 H     -7.0059833762     3.1013199185     4.9050836613
 F     -7.1066445753     2.9382542013     4.0083306881
          4
Energy: -5.781697940617221 Kcal/mole
 H     -6.2767876719    -0.8725985065     3.3657568807
 F     -6.5341621668    -0.6203545408     2.5225366537
 H     -6.0883818332    -2.6302678388     4.4696632185
 F     -5.8596563511    -1.7950653204     4.7713425302
          4
Energy: -5.781684893090642 Kcal/mole
 H     -6.3101896884     2.0187173106     4.5158695396
 F     -6.1444720858     1.3443327385     3.9170105203
 H     -7.0791331990     2.5462484725     6.4263303695
 F     -6.6684538652     3.0569595900     5.7849212651
          4
Energy: -5.787393328491703 Kcal/mole
 H     -5.1149823096    -0.9841313221     3.5944605208
 F     -5.8112306999    -1.0642294723     4.1858245925
 H     -3.6344226204     0.4297145084     2.9770400454
 F     -3.7855917706    -0.4047167170     2.6280967577
          4
Energy: -5.710148104216614 Kcal/mole
 H     -4.4179098604     0.4424037466     3.4479322402
 F     -4.6503998824     0.1644904562     4.2903107731
 H     -2.6962353132     0.1231265103     2.4338594730
 F     -3.3778698675     0.5986346645     2.0463606607
          4
Energy: -5.736187173763767 Kcal/mole
 H     -4.4359840718     1.2385395557     0.2497662526
 F     -5.2303827283     0.9087327642     0.5676455610
 H     -3.3310580610     1.6733662394    -1.6306935969
 F     -3.0661966019     1.6899771208    -0.7529342414
          4
Energy: -5.814536781489778 Kcal/mole
 H     -4.2039945650     1.8555586007    -0.7762920928
 F     -4.7124637702     2.3792497169    -0.2212284188
 H     -2.3098334653     1.9034509273    -1.5623701392
 F     -2.9212189411     1.2332502869    -1.6962652532
          4
Energy: -5.775830379274566 Kcal/mole
 H     -3.4988573978     0.9688314331    -0.5003374695
 F     -3.1373594696     0.2077751740    -0.8622789267
 H     -4.6787118122     2.4219655102    -1.3061195324
 F     -4.4312542822     2.3955819690    -0.4235337407
          4
Energy: -5.812766938330185 Kcal/mole
 H     -3.1463272294     1.8402536863    -0.7019391763
 F     -2.3113864400     1.5060500613    -0.8810224395
 H     -5.1870569211     1.2042841847    -0.4798757873
 F     -4.8307851016     2.0491871979    -0.4699617083
          4
Energy: -5.778456249277781 Kcal/mole
 H     -1.4517215290     1.3097725777    -0.3360996845
 F     -1.6854304336     0.7302531820     0.3350384666
 H      0.1988909670     1.8361562341    -1.6497389630
 F     -0.6724101499     2.1190169341    -1.6083482875
          4
Energy: -5.686400970709542 Kcal/mole
 H      0.3393555244    -1.3523157406    -1.6490574713
 F      0.9098160449    -1.0639976921    -2.3065804728
 H     -1.7513914679    -2.1097328696    -1.2402066817
 F     -1.0310372264    -1.8402714375    -0.7408377766
          4
Energy: -5.748084188569635 Kcal/mole
 H     -0.1308793076    -0.2346071315    -4.4945932976
 F      0.4770556498     0.3674468605    -4.1646916784
 H      0.0391232252    -1.8813823819    -5.8805614263
 F     -0.7137483174    -1.6021157184    -5.4377481802
          4
Energy: -5.761694231156071 Kcal/mole
 H     -0.0753751115    -0.2081905222    -3.7097788419
 F     -0.1200811020    -0.7750839026    -2.9903886351
 H     -0.7563764593     0.0817789840    -5.7256692156
 F     -0.1666881236     0.5426838770    -5.1958358962
          4
Energy: -5.807576582113313 Kcal/mole
 H     -0.7711439131     2.2099710558    -4.0849727533
 F     -0.9338779735     2.8893589166    -3.4909704299
 H     -1.5436599541     0.3594077245    -4.6942292944
 F     -0.8414926173     0.8205165996    -5.0619637591
          4
Energy: -5.77272237201754 Kcal/mole
 H     -2.1590482446     1.3612491123    -3.9793596943
 F     -1.9061644717     2.2151754377    -4.1978742893
 H     -2.3307927317    -0.0915112074    -2.4128514647
 F     -2.4717215827    -0.1425496636    -3.3175188815
          4
Energy: -5.770540824237344 Kcal/mole
 H     -4.1501446414     1.1895637842    -3.9352407867
 F     -4.5509131203     2.0085732212    -3.8377873703
 H     -4.5120286737    -0.6388599564    -3.1862161256
 F     -3.8626684675    -0.4629543159    -3.8093353184
          4
Energy: -5.817849055604256 Kcal/mole
 H     -3.3925752318     2.5765065352    -4.6766017173
 F     -4.0564826746     2.3245052351    -5.2567838026
 H     -2.0181513955     1.7769433589    -3.2095085176
 F     -2.1270395050     2.6302989911    -3.5270247293
          4
Energy: -5.79759334512778 Kcal/mole
 H     -6.2040784012     3.5201645929    -5.2756783583
 F     -6.1364651649     3.8739818117    -6.1189640904
 H     -6.1305980216     1.6181389506    -4.2721251542
 F     -6.3396296836     2.4485613101    -3.9441107197
          4
Energy: -5.810223169416247 Kcal/mole
 H     -6.4568470081     3.7244163054    -5.2343073166
 F     -6.4020612509     4.5316958763    -4.8028131507
 H     -5.1635282920     2.1777069023    -5.8214821534
 F     -6.0681218736     2.2539914401    -5.9510202619
          4
Energy: -5.824625813175658 Kcal/mole
 H     -5.4133389516     5.1788417522    -4.7241506011
 F     -5.4853549104     6.0525292980    -4.4551287174
 H     -5.5052744082     4.0505277994    -6.5202750054
 F     -5.3814504288     3.7412212878    -5.6659412860
          4
Energy: -5.787512531577022 Kcal/mole
 H     -6.3689044083     4.6797056201    -3.2551609365
 F     -6.8683586997     5.0718577119    -3.9167130114
 H     -4.5868484131     3.6532408384    -3.3150123587
 F     -5.0630111554     3.8238353172    -2.5501231074
          4
Energy: -5.736256458813784 Kcal/mole
 H     -5.7380494892     3.3664669585    -3.6988150777
 F     -5.7740884268     3.9195187957    -4.4293791477
 H     -4.7679247268     1.6168636283    -3.0991321856
 F     -5.3272079075     2.1730770484    -2.6314592709
          4
Energy: -5.786580451499731 Kcal/mole
 H     -6.1132396294     2.4794245602    -5.8866404010
 F     -5.9406511758     1.8085670658    -6.4875168008
 H     -6.6142778652     2.6829379329    -3.7803946115
 F     -6.4414538390     3.3200303254    -4.4168960956
          4
Energy: -5.815203333693319 Kcal/mole
 H     -5.6214021560     1.2678050425    -6.3499339402
 F     -5.0818738771     1.2636546915    -7.0914061317
 H     -5.8928450606     2.1908544476    -4.4357514318
 F     -6.3760074276     1.5193501225    -4.8313839235
          4
Energy: -5.824297524199551 Kcal/mole
 H     -4.6950275223     1.2809716669    -6.2693265861
 F     -5.3897276266     1.4070697015    -6.8544590932
 H     -4.1520509656     1.7819324552    -4.2730762306
 F     -3.6981457397     1.2699710444    -4.8836125193
          4
Energy: -5.811183197378455 Kcal/mole
 H     -5.7721602684     1.3944128295    -6.6482639559
 F     -6.4804736222     1.5448566920    -6.0856381148
 H     -3.7930112728     1.8724848258    -6.7397960697
 F     -4.2529367277     1.3775122875    -7.3597636190
          4
Energy: -5.806483625849523 Kcal/mole
 H     -5.7239224633     2.0974486979    -7.1669488786
 F     -6.6136960771     1.9783262782    -6.9798612917
 H     -3.7542604643     1.5204041078    -6.4537184944
 F     -4.0205296691     2.0533759063    -7.1508058437
          4
Energy: -5.813297484316763 Kcal/mole
 H     -6.4014869789     2.3826281728    -6.1053548673
 F     -6.7672382327     2.9989851422    -6.6773855542
 H     -4.4830002619     1.7399442164    -5.3572041918
 F     -5.3222547818     1.4020179250    -5.2077161581
          4
Energy: -5.824211771802027 Kcal/mole
 H     -5.2084497661     2.5766447022    -6.1653344549
 F     -5.3440947963     3.1989379713    -6.8250620601
 H     -6.2912185769     1.4257602258    -4.7620485581
 F     -5.3906664674     1.4368385103    -4.9345946959
          4
Energy: -5.826346561414368 Kcal/mole
 H     -5.1168108681     2.7609514326    -6.2061331152
 F     -5.4478930306     3.0570392421    -7.0083834569
 H     -5.7480037388     2.5820133887    -4.1816570406
 F     -4.9445062006     2.3535311005    -4.5599116508
          4
Energy: -5.825636249723402 Kcal/mole
 H     -4.1096241712     2.2743507743    -6.5762763393
 F     -3.8921214992     2.7120966906    -7.3521372163
 H     -3.1416231744     1.2872181195    -4.9999716699
 F     -4.0427792779     1.3916239807    -5.1337853213
          4
Energy: -5.828272281071463 Kcal/mole
 H     -3.6073315130     1.7711847032    -6.3949994621
 F     -3.2271543479     2.6044651111    -6.4396994068
 H     -4.8068532827     0.6069361946    -5.1358007893
 F     -4.4409810451     0.3741204981    -5.9437756386
          4
Energy: -5.813473022241908 Kcal/mole
 H     -4.2142179022     1.4627620741    -6.3574116083
 F     -3.6458141269     2.1329332351    -6.6194741257
 H     -6.2464345284     0.8275779305    -6.6074432293
 F     -5.5501733769     0.4381820777    -6.1552482726
          4
Energy: -5.818121479251033 Kcal/mole
 H     -4.0390975935     1.0021245126    -5.5547378669
 F     -3.3308703236     1.3297790888    -5.0731305447
 H     -5.9873161459     1.5747967341    -6.2546664039
 F     -5.5328454467     0.7902614052    -6.3919606184
          4
Energy: -5.82089354087833 Kcal/mole
 H     -4.2882995601     1.1246055449    -5.5295857547
 F     -3.6895268295     1.3714306778    -4.8804035223
 H     -6.3457308324     1.2174255758    -5.8795989375
 F     -5.7166257523     0.8267713895    -6.4204363483
          4
Energy: -5.809590142126524 Kcal/mole
 H     -4.7526069897     1.1539554171    -4.5328913411
 F     -4.1983067550     1.5750702548    -3.9359805074
 H     -5.8277842185    -0.6367090505    -4.6455151530
 F     -5.8400824789     0.0546695542    -5.2477886604
          4
Energy: -5.821987869301779 Kcal/mole
 H     -4.7051358642     0.8533370723    -4.1956631912
 F     -3.8419865544     1.1351354212    -4.3239283836
 H     -6.2514019328    -0.0861038826    -5.2991268847
 F     -6.2736990619     0.2318104641    -4.4392883497
          4
Energy: -5.8226342466732035 Kcal/mole
 H     -4.7528244698     0.8217649818    -4.2328792610
 F     -3.9550285242     1.1881782966    -3.9680171988
 H     -6.7557992226     1.3061044436    -4.0386807155
 F     -6.4212115510     0.5713437072    -4.4734987812
          4
Energy: -5.824015298017571 Kcal/mole
 H     -4.8007933908     1.4548242778    -5.0654219288
 F     -4.0235841097     1.8687333904    -5.3213789170
 H     -6.4635451212     0.5753126558    -5.9880851187
 F     -6.3057975425     0.6339404230    -5.0866598660
          4
Energy: -5.809626464462383 Kcal/mole
 H     -5.1028859534     1.4888130328    -5.9775322488
 F     -4.2628229549     1.8372710223    -6.0948360771
 H     -7.0203395039     1.8554420376    -5.0169945118
 F     -6.7171805713     1.1716385137    -5.5474626092
          4
Energy: -5.825187099207369 Kcal/mole
 H     -5.4229493737     2.3156040634    -5.6335900627
 F     -4.6642093124     2.7921220394    -5.8288671424
 H     -6.2226405610     0.3994615714    -5.8475023901
 F     -6.6186042066     1.1257685514    -5.4518005300
          4
Energy: -5.827293030167766 Kcal/mole
 H     -5.1091879759     1.7767677471    -5.5276923523
 F     -4.3947884649     2.2850077946    -5.7964197100
 H     -6.9320113089     1.0383887217    -6.2996323959
 F     -6.5662345395     0.8888440614    -5.4721465957
          4
Energy: -5.823748538958171 Kcal/mole
 H     -5.2441014095     2.0101854434    -5.2103816896
 F     -4.4216980070     2.3863581962    -5.3621568643
 H     -6.7968724650     0.8932201843    -6.1742649987
 F     -6.7466859658     1.2257697974    -5.3211641430
          4
Energy: -5.830979951725908 Kcal/mole
 H     -5.1380432894     2.0197753477    -5.0058560457
 F     -4.3644327349     2.4902494743    -5.1510104677
 H     -6.8400276891     1.3344291065    -6.0523453113
 F     -6.6241210623     1.2079816702    -5.1701410411
          4
Energy: -5.830727528476416 Kcal/mole
 H     -5.1995010129     2.1540903712    -5.0253863966
 F     -4.4222269075     2.6186347797    -5.1700669326
 H     -6.7992103708     1.3371510102    -6.1128591566
 F     -6.6689380817     1.3341643313    -5.2051647088
          4
Energy: -5.8294705644633495 Kcal/mole
 H     -5.2939816057     2.3212747983    -5.1249014447
 F     -4.4558526958     2.6878392674    -5.1886150249
 H     -6.4543384687     0.7309934661    -5.9047078672
 F     -6.6820076694     1.3641606713    -5.2816869805
          4
Energy: -5.830141716486821 Kcal/mole
 H     -5.3460312994     2.4195405706    -5.1875672474
 F     -4.5038608177     2.7820667586    -5.2021495220
 H     -6.3282591964     0.6328468386    -5.7557306296
 F     -6.6805211649     1.3782817824    -5.3543240401
          4
Energy: -5.832564607439281 Kcal/mole
 H     -5.3434278270     2.4134665767    -5.1900041064
 F     -4.5039989259     2.7823889700    -5.2020202523
 H     -6.3174803068     0.6278723471    -5.7363562723
 F     -6.6810929601     1.3785456676    -5.3553518049
