          4
Energy: -5.823304791721853 Kcal/mole
 H     -5.8058125573     0.0661909327    -4.3899762534
 F     -5.1067358095    -0.4527113692    -4.6779364971
 H     -6.2714995501     2.0965209754    -4.2446795087
 F     -6.7854821201     1.3802183713    -3.9924464872
          4
Energy: -5.80887842533474 Kcal/mole
 H     -4.4593892943     0.1046297478    -4.5693128502
 F     -4.2267129936    -0.2650004896    -5.3756156634
 H     -6.0711565395     1.2218368758    -3.8128394161
 F     -5.3032451676     0.9961694988    -3.3653180648
          4
Energy: -5.7840406583936215 Kcal/mole
 H     -5.7912463504     0.3796699577    -5.5317551757
 F     -6.0946845934     1.0064584617    -6.1283709683
 H     -6.6056165764    -0.5890761142    -3.8566320189
 F     -5.7603071358    -0.7303390524    -4.1828002759
          4
Energy: -5.823653094549229 Kcal/mole
 H     -3.7974957947    -0.3225137527    -5.9849680707
 F     -3.4643733612     0.3379738138    -6.5268856094
 H     -5.5979935937    -1.2260839423    -5.4521531449
 F     -4.7567469405    -1.4314991336    -5.1504949481
          4
Energy: -5.803242346381751 Kcal/mole
 H     -3.7547340801     1.2977019864    -5.3832002170
 F     -3.0572702367     0.8594172116    -4.9802862768
 H     -5.7615998490     0.9010949885    -5.8535560402
 F     -5.2628617693     1.6378921209    -6.0755454848
          4
Energy: -5.8190071376722585 Kcal/mole
 H     -5.0157655805     2.3807645030    -5.6081411713
 F     -4.0987730944     2.3814361400    -5.6044902334
 H     -6.6522649262     1.2329055359    -4.9810309581
 F     -6.6726391873     2.0274590270    -5.4383696064
          4
Energy: -5.791496522310524 Kcal/mole
 H     -5.2290069260     2.3603888421    -5.3781662599
 F     -4.4294654071     1.9415624548    -5.2162810633
 H     -7.1967501058     2.0457351314    -6.3235566245
 F     -6.8197315583     2.7755337183    -5.9159538310
          4
Energy: -5.71448000802701 Kcal/mole
 H     -5.9908420765     3.6037129766    -6.6783934716
 F     -5.7600066155     2.9964181471    -7.3255387257
 H     -6.0452019249     3.9278147872    -4.5087476106
 F     -6.3869813707     4.4522527936    -5.1788525187
          4
Energy: -5.817648332838814 Kcal/mole
 H     -6.6170689541     4.0861756645    -7.0574112985
 F     -7.0506380538     3.2980499973    -7.2356380318
 H     -6.2742180292     5.3989327171    -5.4653638209
 F     -5.9339537154     5.4601540947    -6.3146936388
          4
Energy: -5.819160323247388 Kcal/mole
 H     -5.0593296871     4.2506881632    -5.3553215575
 F     -5.0290595058     3.3362782738    -5.4171864937
 H     -5.8353417437     5.8530571375    -6.4291848429
 F     -5.4006995858     5.8925300614    -5.6227004458
          4
Energy: -5.810203178205768 Kcal/mole
 H     -2.2225243941     3.9630983450    -4.0221368004
 F     -2.5935697178     3.1806419434    -3.7205139443
 H     -1.7909905023     5.9472352631    -3.2749598538
 F     -1.6287278469     5.5826542142    -4.1005750726
          4
Energy: -5.826478836400099 Kcal/mole
 H     -2.9257499926     6.0556501751    -2.0047764214
 F     -3.8332076929     6.1399976605    -1.9033120241
 H     -1.3475905590     4.6746651621    -1.6539420869
 F     -1.2987649411     5.5207286418    -2.0042014868
          4
Energy: -5.806617673761934 Kcal/mole
 H     -3.3054602581     5.7910896594    -3.1255853384
 F     -4.0743478268     5.3117158087    -3.2666584330
 H     -1.7608369975     5.8025770066    -1.6853479670
 F     -1.8287160582     6.3100382723    -2.4461136976
          4
Energy: -5.825976953315205 Kcal/mole
 H     -3.1986814910     5.9502549126    -1.9677087229
 F     -3.8511686701     5.3900244378    -2.2859716585
 H     -2.8128957979     7.3800886753    -0.4310673705
 F     -2.2664440604     7.0671550723    -1.0976647443
          4
Energy: -5.814005343041458 Kcal/mole
 H     -2.7429248071     6.1303945359    -1.2987152578
 F     -2.5107587389     5.9376644997    -2.1646500416
 H     -4.0138777991     5.4099936413     0.3073689007
 F     -3.4220870532     6.1100951017     0.2843328795
          4
Energy: -5.808531216890742 Kcal/mole
 H     -1.3590632227     6.2023997993    -0.8824086853
 F     -1.6796236611     5.9762621286    -1.7112583455
 H     -0.2577183123     5.3563691299     0.7894136887
 F     -0.6114112085     6.1912556556     0.6524654347
          4
Energy: -5.83080380910269 Kcal/mole
 H     -0.8229079644     6.7425319254    -1.5416305228
 F     -0.8506533822     7.2389922090    -2.3121150318
 H     -1.9741994448     6.4067484410     0.2058408985
 F     -1.1650095688     6.0440477646    -0.0277162977
          4
Energy: -5.806787618388796 Kcal/mole
 H     -1.6110236417     5.6957318969    -2.0302051969
 F     -1.8389270423     6.2019922133    -2.7600336234
 H     -0.4426572963     5.7618382600    -0.2222151651
 F     -0.9167407246     5.0652645086    -0.5840423501
          4
Energy: -5.826453397163505 Kcal/mole
 H     -2.0067421464     6.2552328525    -2.6052399639
 F     -2.7734472241     6.5309349386    -3.0260019911
 H     -1.2638866176     5.7989993409    -0.6449910279
 F     -0.8316261474     5.7855227847    -1.4536060589
          4
Energy: -5.815159301764481 Kcal/mole
 H     -1.7607108376     6.7451894465    -2.0602786546
 F     -2.5340091385     6.8384396102    -2.5442240492
 H     -0.3562331676     5.2134391130    -1.5558335456
 F     -0.3298154890     6.1025808315    -1.3330823150
          4
Energy: -5.81587856877735 Kcal/mole
 H     -1.7311317344     6.5437697846    -2.1669198970
 F     -2.2181470175     6.9994855522    -2.7962276541
 H      0.2814812581     6.0895661771    -1.6718378694
 F     -0.4993375102     5.8303306711    -1.2668588533
          4
Energy: -5.78344480204413 Kcal/mole
 H     -1.0204902363     6.0729287288    -2.9090266127
 F     -1.6018027337     5.5477208824    -3.3855992708
 H      0.0804005622     6.2602767493    -1.0106193361
 F      7.92898E-400     6.8275188432    -1.7267115276
          4
Energy: -5.824778139361513 Kcal/mole
 H     -0.0432476451     6.9246305530    -2.5045199205
 F      0.1397148479     6.4464421482    -3.2652758444
 H      0.2843375780     6.8036605909    -0.3920861298
 F     -0.1420955433     7.4517289343    -0.8810147701
          4
Energy: -5.799796636785061 Kcal/mole
 H      0.2622344531     7.4560055079    -2.8558759788
 F      0.9419629879     7.4660804815    -3.4713080333
 H     -1.8530348562     7.3012587707    -2.5682352462
 F     -1.1827172713     7.3918249935    -1.9490736400
          4
Energy: -5.7982142798774134 Kcal/mole
 H      0.4134714564     7.0787842830    -1.7122311413
 F      1.2155453095     7.1092359970    -2.1556713598
 H     -1.7337282526     7.0246805857    -1.9398899509
 F     -1.1959148023     6.9686366782    -1.1992788700
          4
Energy: -5.824589569324132 Kcal/mole
 H      0.5484925335     5.3630568247    -1.9915915686
 F      1.3481615472     5.1959387377    -2.4081128928
 H     -1.4878202568     5.1908084243    -2.3443326101
 F     -1.0839125712     5.5064788285    -1.5840038802
          4
Energy: -5.823951056855208 Kcal/mole
 H      0.6997302112     4.1922263590    -2.3168163961
 F      1.2246795494     3.5062259475    -2.0090492314
 H      0.6754958604     6.2765754730    -2.5221854101
 F      0.0344308725     5.6739821491    -2.7806539133
          4
Energy: -5.813379021547917 Kcal/mole
 H      1.5138007763     4.6916958796    -2.7580315089
 F      2.1713382605     4.2304018661    -2.3156049160
 H      0.6204001198     6.5208983161    -2.5358985754
 F      0.4163717956     5.9154164085    -3.1936622886
          4
Energy: -5.815881910236726 Kcal/mole
 H      2.2054985744     4.9622147466    -2.7604508781
 F      2.8162150619     4.2854307578    -2.6610637336
 H      0.8255817071     6.1503935205    -1.6295303355
 F      1.0505834271     6.2081815965    -2.5166175715
          4
Energy: -5.764584041014814 Kcal/mole
 H      2.0346491236     4.7535451078    -2.8501527304
 F      2.9152124998     4.5034193929    -2.7959838536
 H      0.6093714623     6.3473662276    -2.9629851147
 F      0.4799033495     5.4398249042    -2.9852506486
          4
Energy: -5.830864689384896 Kcal/mole
 H      2.1069790668     4.0231917830    -2.2527985381
 F      3.0219542744     4.0682317678    -2.2118013516
 H      0.4417423538     5.3042816571    -2.4422257080
 F      0.4531609629     4.3921924275    -2.3481414241
          4
Energy: -5.830705821217066 Kcal/mole
 H      2.2009808534     3.5861767482    -2.6021591818
 F      2.9924019535     4.0394719708    -2.5069484502
 H      0.7524631906     2.6463273358    -1.3887007824
 F      0.7613577923     2.7146032711    -2.3031122231
          4
Energy: -5.829492426787169 Kcal/mole
 H      1.5753942533     4.4231383979    -2.1169619541
 F      1.9785651224     5.2250092339    -2.3049657117
 H     -0.1886057147     3.7078498833    -1.2570047619
 F      0.4975084499     3.2095862829    -1.6061032261
          4
Energy: -5.828949152093628 Kcal/mole
 H      0.5901966801     4.8618812865    -1.4398164025
 F      0.9459038384     5.6463061168    -1.7545211898
 H      0.2590422290     2.8970650466    -2.0613598515
 F      0.0585067447     3.2687954911    -1.2474243527
          4
Energy: -5.82243653130746 Kcal/mole
 H      0.3456745919     5.1594647411    -1.1731861876
 F      0.6162619082     5.9249182990    -0.7468619507
 H      0.9268617473     3.1176168952    -1.2630826934
 F      0.2501331188     3.5323539009    -1.7223435990
          4
Energy: -5.816197800374823 Kcal/mole
 H      0.3950153266     4.6260694578    -2.2169415958
 F      0.1200598612     5.3077996482    -1.6687332053
 H      1.7742628382     3.1055215267    -2.0793289203
 F      1.2371725709     3.2765887183    -2.8026262732
          4
Energy: -5.8229466853746885 Kcal/mole
 H     -0.0162922586     4.0052044609    -2.4206532965
 F     -0.7907265912     4.2187823355    -1.9784712572
 H      2.0491447730     3.7291504293    -2.0893541095
 F      1.5653561434     3.6393971776    -2.8631641092
          4
Energy: -5.8275302972407985 Kcal/mole
 H     -0.4285737613     3.7770380550    -2.2444429609
 F     -0.9468334955     4.4349267176    -1.8709749494
 H      1.6043029712     3.3848945385    -2.7102813500
 F      0.8641889624     2.8682837677    -2.8722491412
          4
Energy: -5.812209809014007 Kcal/mole
 H     -0.5051030948     4.0210809022    -2.6622080573
 F     -1.1652600930     4.4383029932    -3.1428404162
 H      1.5421672497     4.0648228187    -2.2984520325
 F      0.9159307768     3.5079654149    -1.9261259497
          4
Energy: -5.824626390931712 Kcal/mole
 H     -0.6100776279     4.0965374166    -2.2068222876
 F     -1.3377948699     4.5928008081    -2.4618502507
 H      1.5033823512     4.1561996830    -2.1837104637
 F      0.9426723596     3.5127849370    -1.8482842123
          4
Energy: -5.82162240398344 Kcal/mole
 H     -0.7439834516     4.2025954991    -2.7461669820
 F     -1.2147248480     4.9862170715    -2.6738567544
 H      1.1983677006     3.5938158862    -3.1576965844
 F      0.4821507033     3.0444141984    -2.9962035558
          4
Energy: -5.826189024628718 Kcal/mole
 H     -1.1191233072     4.2641751052    -2.6865489035
 F     -1.9096802593     4.6590143257    -2.4415780982
 H      0.0164348925     2.5141061878    -2.3487205282
 F      0.2182670872     3.2217726294    -2.8958594252
          4
Energy: -5.815348310550235 Kcal/mole
 H     -0.7026504154     5.1635525510    -2.4307976913
 F     -1.5407727550     5.5072462612    -2.2882684756
 H      0.4020555902     3.3376728983    -2.6273547569
 F      0.6981219625     4.2050897026    -2.6560216506
          4
Energy: -5.822956319847435 Kcal/mole
 H     -0.8365646395     4.8575800992    -2.4482129539
 F     -1.6884130242     5.1644905612    -2.3031291924
 H      0.9899880016     4.5369318139    -1.4727089013
 F      0.7812069294     4.3825554895    -2.3521788635
          4
Energy: -5.829359909768755 Kcal/mole
 H     -0.9053908373     4.0790192303    -2.3818269131
 F     -1.7743876466     4.3466273702    -2.2630017103
 H      0.2978884212     2.4389789384    -1.9050205035
 F      0.5521611177     3.1946751934    -2.3579637295
          4
Energy: -5.8254573508090175 Kcal/mole
 H     -0.4072659468     4.1037132010    -1.7236399096
 F     -1.0742726490     4.6200929498    -1.3639970115
 H      0.8957240553     2.5740151217    -1.1586340638
 F      0.8357712570     2.9954997075    -1.9708196374
          4
Energy: -5.831629369418295 Kcal/mole
 H     -0.4950593642     4.0036198282    -1.6103812561
 F     -1.2032447468     4.5835583846    -1.6654606049
 H      0.8011458415     2.9289898943    -2.8781974875
 F      0.7852615771     2.9491282212    -1.9615562611
          4
Energy: -5.828692336789629 Kcal/mole
 H     -0.4743736437     3.9017228031    -1.8245892789
 F     -1.1388887203     4.5277658993    -1.7386896014
 H      0.0827684625     2.2914177658    -3.0401805348
 F      0.5278998799     2.6316570385    -2.3142437204
          4
Energy: -5.8307933986818625 Kcal/mole
 H     -0.5465539682     3.9846461663    -1.8431038704
 F     -1.2903660303     4.3291130425    -1.4320379541
 H      0.0558349400     2.2839304536    -2.9618489444
 F      0.5479073346     3.0156673863    -2.7102245820
          4
Energy: -5.832144144274764 Kcal/mole
 H     -0.0155668134     3.7290296060    -1.0461453807
 F     -0.4543113143     4.4509435728    -0.6894487484
 H      1.2129551275     3.2395415863    -2.6933570654
 F      0.9217900539     2.6899361368    -2.0195278958
          4
Energy: -5.8290039956738156 Kcal/mole
 H     -0.1377684870     3.1954655925    -0.5708131227
 F     -0.5484000824     3.7159585071     0.0627149498
 H      1.0730511773     3.3617739143    -2.3184001125
 F      0.7525853760     2.6135833324    -1.8960240676
          4
Energy: -5.806713403104254 Kcal/mole
 H     -0.3500395223     3.0113948482    -0.5972809694
 F     -0.7891615524     3.2175290700     0.1809025085
 H      1.2075238163     1.6805941193    -1.2849654514
 F      0.6886654664     2.2675439111    -1.7615836998
          4
Energy: -5.830410819134784 Kcal/mole
 H     -0.5084213411     3.5856307832    -0.9175734746
 F     -0.6291158327     4.1322392439    -0.1912532764
 H     -1.1760509710     3.4488950630    -2.8968097459
 F     -0.6034492248     2.8790088406    -2.4629365687
          4
Energy: -5.827099047757656 Kcal/mole
 H     -0.6731123786     3.6274001459    -1.0934341571
 F     -1.0047653522     4.2001193091    -0.4586995155
 H     -1.2895901720     2.6108799552    -2.8713690757
 F     -0.4810297759     2.5848507077    -2.4395802801
          4
Energy: -5.829606250585243 Kcal/mole
 H     -0.9892103242     3.8230947719    -1.1079792988
 F     -1.1567056336     4.2020726957    -0.2899266999
 H     -1.3435016912     2.0172883725    -2.1544922630
 F     -0.8835010407     2.7580792851    -2.4382478365
          4
Energy: -5.820735876698052 Kcal/mole
 H     -0.8512532352     3.8909518784    -1.1930897786
 F     -0.8315201262     4.4067536528    -0.4351662113
 H     -0.3210227046     1.9323796921    -1.9331686891
 F     -0.7196651841     2.6377579607    -2.3626039830
          4
Energy: -5.825591728907625 Kcal/mole
 H     -1.0579671737     3.7933420721    -1.1631628470
 F     -1.2387245041     4.2814159236    -0.4081796001
 H     -0.4483532492     1.8496198698    -1.7869490909
 F     -0.6303970547     2.5985754278    -2.2837535042
          4
Energy: -5.830001844293349 Kcal/mole
 H     -0.9842101261     4.0942962380    -1.3860808221
 F     -0.9733363327     4.7222659599    -0.7179305478
 H      0.1128438837     2.3886988671    -1.9818531446
 F     -0.6128135958     2.7658307695    -2.3966805191
          4
Energy: -5.827909931888655 Kcal/mole
 H     -0.6697717062     4.0563612514    -1.3261815281
 F     -0.9002463718     4.6617093372    -0.6770866787
 H     -1.0961882332     2.0854862246    -1.9303874366
 F     -0.5403573926     2.6923469966    -2.3349379031
          4
Energy: -5.830354650418144 Kcal/mole
 H     -0.7894783288     4.2301839570    -1.5319522558
 F     -1.0894577682     4.8619496606    -0.9388473480
 H     -1.1356210897     2.1934695002    -2.0238994478
 F     -0.5512670663     2.7861280456    -2.4088347981
          4
Energy: -5.830527712481 Kcal/mole
 H     -0.8426546838     4.2889112088    -1.6591239637
 F     -0.9906712081     4.9100469172    -1.0009670370
 H     -0.4818217546     2.2290349774    -1.8851663432
 F     -0.5425815297     2.8650256717    -2.5429756518
          4
Energy: -5.831315054446009 Kcal/mole
 H     -1.0563825048     4.3824741760    -1.6983631825
 F     -1.1411243818     5.0158639034    -1.0406966503
 H     -0.0579311817     2.5478937470    -2.0725245012
 F     -0.6202182133     3.0169396604    -2.6245373863
          4
Energy: -5.8301506161562315 Kcal/mole
 H     -1.2248970358     4.3083747260    -1.6134797184
 F     -1.2068171790     4.9450177728    -0.9537466286
 H     -0.2908181221     2.4688698726    -2.0614838800
 F     -0.9140851717     2.9207384651    -2.5597227384
          4
Energy: -5.827102056935871 Kcal/mole
 H     -1.1999968664     4.1339264502    -1.3704252824
 F     -1.1713309380     4.8308986207    -0.7751967061
 H      0.0320889334     2.7061941669    -2.3391596405
 F     -0.8720937186     2.8405983279    -2.4118112300
          4
Energy: -5.826578926611717 Kcal/mole
 H     -1.1490452222     4.1732458754    -1.4407221701
 F     -1.1452427519     4.7905506256    -0.7626297084
 H     -0.2844770589     2.3432209452    -1.8898150958
 F     -0.8743986165     2.8184208173    -2.4066000003
          4
Energy: -5.8315183086074285 Kcal/mole
 H     -0.9749481880     4.2338725506    -1.4918348493
 F     -1.1268319309     4.8164649524    -0.8001655483
 H     -0.8200539695     2.1512458562    -1.8344819921
 F     -0.7508689410     2.8351026215    -2.4414765196
          4
Energy: -5.831724187212956 Kcal/mole
 H     -0.8894984590     4.2336665482    -1.4443190043
 F     -1.1161720944     4.8162021041    -0.7733790748
 H     -1.2089230761     2.2147138110    -1.9969739953
 F     -0.7290451942     2.8586314500    -2.4396660923
          4
Energy: -5.832106253960205 Kcal/mole
 H     -0.9700608095     4.2303190101    -1.4632494296
 F     -1.1131451582     4.8020271419    -0.7607071311
 H     -0.8530368249     2.1610121862    -1.8643079041
 F     -0.7479241374     2.8614801971    -2.4467037219
          4
Energy: -5.832322444974409 Kcal/mole
 H     -0.9829162704     4.2295731349    -1.4662118036
 F     -1.1231670876     4.7940333130    -0.7572665196
 H     -0.7842247158     2.1711123054    -1.8444695758
 F     -0.7515744608     2.8609444091    -2.4477560993
          4
Energy: -5.832530151101935 Kcal/mole
 H     -0.9873869109     4.2266734651    -1.4647648796
 F     -1.1229299305     4.7941871337    -0.7573432756
 H     -0.7716848750     2.1679724432    -1.8475352545
 F     -0.7522396704     2.8611109716    -2.4475934722
