          6
Energy: -5.326055290981111 Kcal/mole
 Xe    -3.9637946680     5.3327462582     9.8439886717
 Xe     1.1352020043     7.1922624557     5.1473846689
 Xe    -1.1571955034     3.8132884222     6.8225643437
 Xe     0.0522147785     7.1565965318     9.4290882451
 Xe    -3.0411839872     7.8601818523     6.3752706257
 Xe    -2.1791522810     5.3923907898     2.8414443293
