          6
Energy: -5.326035490547163 Kcal/mole
 Xe    -2.1122448581     7.3127134005    -0.9196954987
 Xe    -1.6304545875    10.1787799463    -7.4803378705
 Xe     0.2836111874     9.9778426565    -3.4976250225
 Xe    -1.6465036785     6.4158971226    -5.1954574135
 Xe    -4.1024507004     9.8925345736    -3.8667573408
 Xe    -5.5267220109     5.7637290971    -3.2482090374
