          6
Energy: -0.06944690889593692 Kcal/mole
 Xe     6.7009009061    -3.3413646075    -4.9085814866
 Xe    -4.2842862718     2.0845974291     0.3171996491
 Xe    -1.3496529252    -6.5780155535    -4.6428129190
 Xe    -6.6332883311    -4.6072974732     3.7508235699
 Xe     5.1685996539     6.5244229576    -5.1994616390
 Xe     4.9453167560     6.7886781091     6.3373121929
