          6
Energy: -0.6956350455107225 Kcal/mole
 Xe     0.5242659195     0.8343158452     1.0947764237
 Xe     5.7609578774     2.1699725826     8.9016541872
 Xe     3.0891506892     4.7933270224     6.3991457527
 Xe     9.7679165429    -2.0802944287     9.2266471218
 Xe   -10.1473744759    -2.0976184659    -5.8677327098
 Xe    -6.1220182539     0.7700695847     3.8732763855
          6
Energy: -1.3574406543998574 Kcal/mole
 Xe    -8.6647713927    -3.6318195188     3.1119072938
 Xe    -8.1385157378     3.0420401247     1.6594655390
 Xe   -10.1551002484     6.9320374101     3.2856427827
 Xe    -3.4045430892     7.8494910491     1.8236069742
 Xe    -6.6479236877     9.7402849412     5.7918458565
 Xe     0.5898505281     4.6999031489     0.3491930804
          6
Energy: -2.2707767193213075 Kcal/mole
 Xe    -4.9057647469     6.7811045513    10.4256389342
 Xe     1.8615410933     8.1579503037     8.8521021814
 Xe     1.6687051773     9.0030752676     4.6740921773
 Xe    10.3722018121    -0.9597947019    -5.0449863875
 Xe     3.6036793186     3.8915479256     8.4614346589
 Xe    -0.3688449673     5.0350032942     6.5123330064
          6
Energy: -3.7555286848399003 Kcal/mole
 Xe    -0.8399501867     7.6821304609     2.7104109386
 Xe    -4.1218556349     4.3729672912     2.2378637771
 Xe    -3.9448208593     6.7231458715    -1.8729168805
 Xe    -0.5150140447     4.4473369923     0.1664699106
 Xe    -3.9939957875     2.2752120465     5.9609607823
 Xe    -4.7526394999     9.4609522988     1.3026701454
          6
Energy: -4.765346153045366 Kcal/mole
 Xe    -7.3733571531     3.8597445334     0.0787974852
 Xe    -6.5950293549     0.8625592222    -3.2818005217
 Xe    -6.2285143213     5.3995368659    -4.0407834077
 Xe    -2.7428578142     3.5714428609    -1.2087309416
 Xe    -4.7587942326     0.3597725899     0.9584392290
 Xe    -4.5314293699     4.1167571370     3.4836651010
          6
Energy: -4.8278690799108155 Kcal/mole
 Xe    -4.5770475566     5.4751744457     2.5743591174
 Xe    -2.1236003545     7.1901472101    -3.3666890966
 Xe    -6.2886077479     6.4372188757    -1.2961758599
 Xe    -4.5573253751    10.4247888738    -0.6752704693
 Xe    -2.0145090012     3.8285612486    -0.3487742683
 Xe    -1.2528897326     7.8159802370     0.8594825089
          6
Energy: -4.759113989908506 Kcal/mole
 Xe    -3.8350973186     5.5396775310    -0.3650756361
 Xe    -5.9326443479     9.8992541796    -6.1466061978
 Xe    -8.0930288281     9.7424508880    -1.6369037858
 Xe    -3.8028449120     9.3152557303    -2.1530616692
 Xe    -6.6583591514     6.3909138857    -3.8427403922
 Xe    -2.2454452525     5.8104414362    -4.7786835950
          6
Energy: -5.030454887756536 Kcal/mole
 Xe    -1.4506297284     9.2472559704    -0.5404430281
 Xe    -5.5137158396     5.7219435867    -5.5558954148
 Xe    -3.1757795100     9.6120692932    -4.9213942553
 Xe    -1.6137610481     5.6658976159    -3.1990030045
 Xe    -5.3549811375     7.7278828741    -1.8210824588
 Xe    -2.5746631034     5.4947754928     1.3778392763
          6
Energy: -5.172281384451297 Kcal/mole
 Xe    -2.5078944157     7.4326518413    -0.7163190813
 Xe    -1.6048262049    10.2000434872    -7.5865518600
 Xe     6.90436E-400     9.9128591992    -3.3910746214
 Xe    -1.6465036785     6.4158971226    -5.1954574135
 Xe    -4.1943427949     9.8977439587    -3.8686356697
 Xe    -5.7307543602     5.9412951355    -3.3347572675
          6
Energy: -5.326035490547163 Kcal/mole
 Xe    -2.1122448581     7.3127134005    -0.9196954987
 Xe    -1.6304545875    10.1787799463    -7.4803378705
 Xe     0.2836111874     9.9778426565    -3.4976250225
 Xe    -1.6465036785     6.4158971226    -5.1954574135
 Xe    -4.1024507004     9.8925345736    -3.8667573408
 Xe    -5.5267220109     5.7637290971    -3.2482090374
