          6
Energy: -0.4649374896162607 Kcal/mole
 Xe    -4.9513582028    -2.1750577727    -5.0021912614
 Xe    -7.2544813326     3.4505595821    -5.9465330384
 Xe    -3.0210846385    -7.5156815804    -2.6348389407
 Xe    -2.8884040808     3.6029548498    -9.6463193503
 Xe     2.2165017483    -3.1149452833    -9.4983596641
 Xe     1.3578578445    -8.3240614878     8.4918840076
          6
Energy: -3.1995363574559916 Kcal/mole
 Xe    -7.9816061339    -3.1259060959    -6.1598842730
 Xe   -10.3973169926    -6.0801415466    -3.8863133058
 Xe    -5.2535326304    -1.3020847890    -1.1555662309
 Xe    -4.3652628171    -9.0980382098    -2.5877154177
 Xe    -4.4219446231    -5.3196521298    -5.4996251070
 Xe    -6.7764223659    -6.0118736977    -0.8660554123
          6
Energy: -4.06085669289312 Kcal/mole
 Xe     0.0413998282     0.7128731100    -7.9144928441
 Xe    -3.6905733649    -0.8829339954    -9.8101607362
 Xe    -2.4006285346    -0.5433319552    -4.4418562852
 Xe     1.8909845716     0.0332048359    -3.6929082607
 Xe    -4.0373064112     3.1711112397    -2.4843917838
 Xe    -4.5364981594     2.1398159742    -6.9124732038
          6
Energy: -4.79221380762128 Kcal/mole
 Xe     0.4203724061     1.3354558509    -1.4477429163
 Xe     0.8273137932    -2.4401020241     0.5110884718
 Xe     1.2639364490    -2.4986783832    -3.9439098931
 Xe    -2.6019895465    -1.4686571041    -2.1001297264
 Xe    -3.5135868951     2.9453497840    -2.6365687680
 Xe    -2.6156291102     1.0977260456     1.9599625469
          6
Energy: -4.952640752514548 Kcal/mole
 Xe     3.3813687494     2.2424022912    -1.3079031698
 Xe     0.6442056434    -0.4109436979     0.9152935322
 Xe    -0.4221538009    -0.4726992357    -3.3925398713
 Xe    -2.5477326012     2.3474111090    -0.1088718594
 Xe    -0.0950496235     4.2417052809    -2.8838892384
 Xe     0.8104115850     3.8934288051     1.7103093758
          6
Energy: -4.9500320107721825 Kcal/mole
 Xe     2.5450125929     1.2172265512    -7.2565085201
 Xe     0.4305486917     0.2633908213    -3.2657952675
 Xe    -1.8788876743     0.5399659209    -7.2202268324
 Xe    -3.8801403111     2.3120007829    -3.5909662646
 Xe    -0.0757472780     4.2935860579    -5.1960603555
 Xe     3.4692634165     3.4717068525    -3.3810152432
          6
Energy: -5.279658211353217 Kcal/mole
 Xe    -3.1365312843    -0.1499410265    -7.7027208589
 Xe     0.1015545915    -0.2812178789    -4.8055411163
 Xe    -3.8588249741    -1.3969606073    -3.3734077351
 Xe    -1.8219294319     2.1054610366    -1.4789067692
 Xe    -5.6033589092     2.2894276452    -4.5780068206
 Xe    -1.7091332397     3.5977988466    -5.7427734527
          6
Energy: -5.11763837271311 Kcal/mole
 Xe    -4.3653821077     2.0777611750    -4.8851939379
 Xe    -0.8006021937     3.0138694411    -2.2768533290
 Xe    -3.5607088163     0.0663426307    -0.7802439734
 Xe    -2.2455503877     3.3696509064     1.9930828711
 Xe    -7.7564833765     1.3669444158    -2.4449020142
 Xe    -4.7960653453     4.5078653224    -1.4370915513
          6
Energy: -5.204313712578456 Kcal/mole
 Xe    -1.9685117541     4.5485845678    -6.0576604852
 Xe     0.1980825226     3.8537690930    -2.1660210946
 Xe    -3.5642221280     1.6720729885    -3.0703435126
 Xe    -2.7397525784     3.0268451959     1.0858818621
 Xe    -6.3265860262     4.5281413346    -4.7442674262
 Xe    -3.3052701506     6.1274435622    -2.1503256536
          6
Energy: -5.323740860946599 Kcal/mole
 Xe    -1.6800593311     4.5850428777    -5.9407755833
 Xe     0.3164644501     3.6196439670    -2.1340159760
 Xe    -3.5474081056     1.7492689624    -3.1676511108
 Xe    -2.7949205311     3.1015738894     0.9477204698
 Xe    -6.0541546204     4.6708859925    -5.2573738930
 Xe    -3.3201903023     6.1420887789    -2.1585946357
