          6
Energy: -0.5379152164450453 Kcal/mole
 Xe     2.4661141848     9.3644273406    10.5719600535
 Xe    -4.3863983661     1.9475796273     3.7364660180
 Xe     0.7897381657    -9.7473886956    -3.6158102757
 Xe     4.0564008581    -6.7292961249    -8.1107369230
 Xe     0.7926365896     3.2910387556     6.5199290162
 Xe    -9.1208196558     3.5246014191     5.0525900815
          6
Energy: -2.0626543762523797 Kcal/mole
 Xe     0.3643386168     6.7190038851   -10.5272237533
 Xe    -1.8003333174     1.4489311645    -5.3037757380
 Xe     1.8864770852     4.0650269363    -4.6777501154
 Xe    -1.8561978933     3.5062170733    -1.2465865437
 Xe     2.5275271313     7.9451262666    -6.3547863878
 Xe    10.4931652169    10.6066991943    -1.1851284084
          6
Energy: -1.7298408068443125 Kcal/mole
 Xe    -1.9856429634    -0.7069381720     2.1139526782
 Xe    -6.3610023419     7.1373438823    -7.7453789511
 Xe    -9.0025871647    -6.7647042399     2.2072172763
 Xe    -5.0525193259    -4.0410931007     2.6445452012
 Xe    -2.5174522558    -4.2674595624    -2.3949907102
 Xe    -2.7659361888    -5.4543096570     6.1311943080
          6
Energy: -2.9466836819392563 Kcal/mole
 Xe     5.2084477005    -0.3468367903    -1.6557686522
 Xe    -0.5554510532    -4.8541152703    -1.8571862950
 Xe     3.2248903995    -5.3414025237     0.0665698659
 Xe     1.6295836724    -1.3983394246    -3.8215457054
 Xe    -2.8013123393    -0.6879242234    -3.0729122073
 Xe    -2.5817778321    -1.1739366226     2.1212345039
          6
Energy: -3.7164079039328075 Kcal/mole
 Xe     3.0586921331     4.8745726292     0.1718099978
 Xe     5.1177638611    -3.5486684478     1.0351181915
 Xe     6.1009968405     1.1227433846     1.8733349461
 Xe     2.9247697867    -1.1066849249     4.0057314405
 Xe     1.4456241159    -1.0541290480    -0.7597549400
 Xe     4.0311829950     1.8589994401    -2.4819903208
          6
Energy: -4.527101434862539 Kcal/mole
 Xe     5.3186535480     1.4756501722    -1.6634649917
 Xe     0.4834932801    -1.5431454757    -5.2730541833
 Xe    -1.4985706709     0.8879151060    -2.2437101027
 Xe     2.6263117005     2.3162956980    -5.3293231216
 Xe     4.7812715676    -2.0417357023    -4.1182161716
 Xe     1.7570508147    -1.9497620585    -0.8798959942
          6
Energy: -4.86632973735096 Kcal/mole
 Xe     4.2036504586    -0.8869774904    -2.9825468336
 Xe     4.3958170552    -1.6251489585    -8.1631340046
 Xe     5.1270325191    -4.8562639334    -4.9600815731
 Xe     0.9882537351    -2.7440310187    -5.5421679965
 Xe     2.1209530474     1.7246224229    -6.3219369653
 Xe     7.6722062671    -0.1037586021    -5.5956447290
          6
Energy: -4.835908496522427 Kcal/mole
 Xe     6.0264984334     5.1737916901    -0.9110463607
 Xe     5.0776209475     1.4761670251    -2.8489973839
 Xe     1.7486237634     4.0558322149    -1.2554000135
 Xe     1.9638794740     2.4835324570    -5.6431267081
 Xe     3.1915637321     6.5025798899    -4.5871139744
 Xe     4.4642362277     2.2349375215     1.7846689371
          6
Energy: -5.253270827094943 Kcal/mole
 Xe     6.9456167786    -0.2674635305    -1.8523926678
 Xe     5.5114665736    -0.7328922626    -5.9039029306
 Xe     5.1391468741     3.6733607571    -1.7878039000
 Xe     3.5714661123     3.1927429816    -5.8449646962
 Xe     8.1423347421     2.6473549131    -4.5321844002
 Xe     2.6175621257     0.0713190184    -2.7834652802
          6
Energy: -5.502311258908787 Kcal/mole
 Xe     6.7373956671    -0.4159256710    -1.6928022121
 Xe     5.5837170335    -0.9929108607    -5.8829213990
 Xe     5.1391468741     3.6733607571    -1.7878039000
 Xe     3.9651983125     3.1124400751    -5.9634960268
 Xe     8.1366605190     2.4347235095    -4.7490942840
 Xe     2.5879815005     0.2555389974    -2.9158640901
